Version 4
SHEET 1 2384 1372
WIRE 112 -16 -224 -16
WIRE 288 -16 112 -16
WIRE 1328 -16 1152 -16
WIRE 1488 -16 1328 -16
WIRE 1600 -16 1488 -16
WIRE 112 0 112 -16
WIRE 288 0 288 -16
WIRE 1152 0 1152 -16
WIRE 1328 0 1328 -16
WIRE 64 80 48 80
WIRE 240 80 224 80
WIRE 416 80 416 64
WIRE 912 80 912 64
WIRE 1104 80 1088 80
WIRE 1280 80 1264 80
WIRE 112 112 112 96
WIRE 144 112 112 112
WIRE 384 112 144 112
WIRE 528 112 448 112
WIRE 720 112 608 112
WIRE 880 112 784 112
WIRE 1120 112 944 112
WIRE 1152 112 1152 96
WIRE 1152 112 1120 112
WIRE 1600 112 1600 -16
WIRE -224 128 -224 -16
WIRE 288 192 288 96
WIRE 320 192 288 192
WIRE 720 192 320 192
WIRE 1296 192 784 192
WIRE 1328 192 1328 96
WIRE 1328 192 1296 192
WIRE 112 208 112 112
WIRE 288 208 288 192
WIRE 1152 208 1152 112
WIRE 1328 208 1328 192
WIRE 64 288 48 288
WIRE 240 288 224 288
WIRE 1104 288 1088 288
WIRE 1280 288 1264 288
WIRE -224 320 -224 208
WIRE -144 320 -224 320
WIRE 112 320 112 304
WIRE 112 320 -144 320
WIRE 288 320 288 304
WIRE 288 320 112 320
WIRE 704 320 288 320
WIRE 1152 320 1152 304
WIRE 1152 320 784 320
WIRE 1328 320 1328 304
WIRE 1328 320 1152 320
WIRE 1376 320 1328 320
WIRE 1600 320 1600 192
WIRE 1600 320 1376 320
WIRE 1376 352 1376 320
WIRE 1088 544 1056 544
WIRE 1728 544 1696 544
WIRE 960 560 928 560
WIRE 1600 560 1568 560
WIRE 1088 576 1056 576
WIRE 1728 576 1696 576
WIRE 928 608 928 560
WIRE 928 608 896 608
WIRE 1568 608 1568 560
WIRE 1568 608 1536 608
WIRE 800 624 752 624
WIRE 1440 624 1392 624
WIRE 928 640 896 640
WIRE 1568 640 1536 640
WIRE 144 672 64 672
WIRE 1088 672 1056 672
WIRE 1728 672 1696 672
WIRE 928 688 928 640
WIRE 960 688 928 688
WIRE 1568 688 1568 640
WIRE 1600 688 1568 688
WIRE 432 704 384 704
WIRE 1088 704 1056 704
WIRE 1728 704 1696 704
WIRE 144 720 144 672
WIRE 192 720 144 720
WIRE 432 736 384 736
WIRE 1728 736 1728 704
WIRE 192 752 -48 752
WIRE 432 768 384 768
WIRE 192 784 144 784
WIRE 432 800 384 800
WIRE 1088 832 1056 832
WIRE 1728 832 1696 832
WIRE 144 848 144 784
WIRE 144 848 64 848
WIRE 960 848 928 848
WIRE 1600 848 1568 848
WIRE 1088 864 1056 864
WIRE 1728 864 1696 864
WIRE 928 896 928 848
WIRE 928 896 896 896
WIRE 1568 896 1568 848
WIRE 1568 896 1536 896
WIRE 800 912 752 912
WIRE 1440 912 1392 912
WIRE 928 928 896 928
WIRE 1568 928 1536 928
WIRE 1088 960 1056 960
WIRE 1728 960 1696 960
WIRE 928 976 928 928
WIRE 960 976 928 976
WIRE 1568 976 1568 928
WIRE 1600 976 1568 976
WIRE 1088 992 1056 992
WIRE 1728 992 1696 992
WIRE 1728 1008 1728 992
FLAG 48 80 g1
FLAG 48 288 g2
FLAG 144 112 sw1
FLAG 224 80 g3
FLAG 224 288 g4
FLAG 320 192 sw2
FLAG 1488 -16 out
FLAG 1088 544 g1
FLAG 1088 576 sw1
FLAG 1088 672 g2
FLAG 1088 832 g3
FLAG 1088 864 sw2
FLAG 1088 960 g4
FLAG -144 320 hvgnd
FLAG 1088 992 hvgnd
FLAG 1088 704 hvgnd
FLAG 1120 112 sw3
FLAG 1296 192 sw4
FLAG 1376 352 0
FLAG 1088 80 g5
FLAG 1088 288 g6
FLAG 1264 80 g7
FLAG 1264 288 g8
FLAG 1728 544 g5
FLAG 1728 576 sw3
FLAG 1728 672 g6
FLAG 1728 832 g7
FLAG 1728 864 sw4
FLAG 1728 960 g8
FLAG 1728 1008 0
FLAG 1728 736 0
FLAG 416 64 itank1
FLAG 912 64 itank2
FLAG 752 912 pwm2
FLAG 432 736 pwm2
FLAG 432 704 pwm1
FLAG 432 800 pwm4
FLAG 432 768 pwm3
FLAG 752 624 pwm1
FLAG 1392 624 pwm3
FLAG 1392 912 pwm4
SYMBOL voltage -224 112 R0
WINDOW 123 0 0 Left 0
WINDOW 39 0 0 Left 0
SYMATTR InstName V1
SYMATTR Value 400
SYMBOL ind2 704 208 M180
WINDOW 0 0 113 Left 2
WINDOW 3 -20 -6 Left 2
SYMATTR InstName Lp
SYMATTR Value 50µ
SYMATTR SpiceLine Rser=1m
SYMBOL ind2 800 208 R180
WINDOW 0 9 113 Left 2
WINDOW 3 -40 -4 Left 2
SYMATTR InstName Ls
SYMATTR Value 50µ
SYMATTR SpiceLine Rser=1m
SYMBOL DEADTIME 848 624 R0
SYMATTR InstName X3
SYMBOL DEADTIME 848 912 R0
SYMATTR InstName X6
SYMBOL res 800 304 R90
WINDOW 0 0 56 VBottom 2
WINDOW 3 32 56 VTop 2
SYMATTR InstName Riso
SYMATTR Value 1Gig
SYMBOL ind 512 128 R270
WINDOW 0 32 56 VTop 2
WINDOW 3 5 56 VBottom 2
SYMATTR InstName Lr1
SYMATTR Value 15µ
SYMATTR SpiceLine Rser=10m
SYMBOL DEADTIME 1488 624 R0
SYMATTR InstName X15
SYMBOL DEADTIME 1488 912 R0
SYMATTR InstName X18
SYMBOL IMON 416 112 M180
SYMATTR InstName X21
SYMBOL IMON 912 112 R180
SYMATTR InstName X22
SYMBOL PHASESHIFT3 288 752 R0
SYMATTR InstName X2
SYMBOL CONST 32 672 R0
WINDOW 39 3 57 Bottom 2
SYMATTR SpiceLine K=150k
SYMATTR InstName X9
SYMBOL CONST -80 752 R0
WINDOW 39 5 54 Bottom 2
SYMATTR SpiceLine K=45
SYMATTR InstName X10
SYMBOL CONST 32 848 R0
WINDOW 39 5 59 Bottom 2
SYMATTR SpiceLine K=180
SYMATTR InstName X11
SYMBOL voltage 1600 96 R0
WINDOW 123 0 0 Left 0
WINDOW 39 0 0 Left 0
SYMATTR InstName V2
SYMATTR Value 350
SYMBOL iGD 1008 560 R0
SYMATTR InstName X1
SYMBOL iGD 1008 688 R0
SYMATTR InstName X4
SYMBOL iGD 1008 848 R0
SYMATTR InstName X5
SYMBOL iGD 1008 976 R0
SYMATTR InstName X7
SYMBOL iGD 1648 560 R0
SYMATTR InstName X8
SYMBOL iGD 1648 688 R0
SYMATTR InstName X12
SYMBOL iGD 1648 848 R0
SYMATTR InstName X13
SYMBOL iGD 1648 976 R0
SYMATTR InstName X14
SYMBOL iNMOS 112 48 R0
SYMATTR InstName X16
SYMBOL iNMOS 112 256 R0
SYMATTR InstName X17
SYMBOL iNMOS 288 48 R0
SYMATTR InstName X19
SYMBOL iNMOS 288 256 R0
SYMATTR InstName X20
SYMBOL iNMOS 1152 48 R0
SYMATTR InstName X23
SYMBOL iNMOS 1152 256 R0
SYMATTR InstName X24
SYMBOL iNMOS 1328 48 R0
SYMATTR InstName X25
SYMBOL iNMOS 1328 256 R0
SYMATTR InstName X26
TEXT 680 56 Left 2 !K Lp Ls 1
TEXT 728 240 Left 2 ;1:1
TEXT -208 416 Left 2 !.tran 0 1m 0.95m 10n
TEXT -240 -200 Left 6 ;DAB converter
TEXT -208 448 Left 2 !;.save V(vout) V(sw3) V(sw4) V(sw1) V(sw2) V(freq) I(Lr) I(Cout) V(freq)
TEXT 1368 -184 Left 2 ;2024-12-29
LINE Normal 747 204 747 92 1
LINE Normal 755 204 755 92 1
