Version 4.1
SHEET 1 2724 2028
WIRE 176 592 160 592
WIRE 432 592 176 592
WIRE 160 624 160 592
WIRE 432 656 432 592
WIRE 160 736 160 704
WIRE 384 736 352 736
WIRE 400 784 224 784
WIRE 432 784 432 752
WIRE 432 784 400 784
WIRE 432 816 432 784
WIRE 384 896 352 896
WIRE 224 912 224 784
WIRE 432 944 432 912
WIRE 464 944 432 944
WIRE 576 944 464 944
WIRE 656 944 576 944
WIRE 672 944 656 944
WIRE 432 976 432 944
WIRE 576 992 576 944
WIRE 672 992 672 944
WIRE 384 1056 352 1056
WIRE 224 1104 224 976
WIRE 400 1104 224 1104
WIRE 432 1104 432 1072
WIRE 432 1104 400 1104
WIRE 432 1136 432 1104
WIRE 576 1136 576 1056
WIRE 672 1136 672 1072
WIRE 384 1216 352 1216
WIRE 432 1280 432 1232
WIRE 544 1456 512 1456
WIRE 416 1472 384 1472
WIRE 544 1488 512 1488
WIRE 544 1584 512 1584
WIRE 384 1600 384 1472
WIRE 416 1600 384 1600
WIRE 544 1616 512 1616
WIRE 384 1696 384 1600
WIRE 384 1696 336 1696
WIRE 96 1712 48 1712
WIRE 240 1712 192 1712
WIRE 384 1728 336 1728
WIRE 544 1776 512 1776
WIRE 384 1792 384 1728
WIRE 416 1792 384 1792
WIRE 544 1808 512 1808
WIRE 544 1904 512 1904
WIRE 384 1920 384 1792
WIRE 416 1920 384 1920
WIRE 544 1936 512 1936
FLAG 576 1136 0
FLAG 656 944 out
FLAG 176 592 in
FLAG 464 944 sw2
FLAG 672 1136 0
FLAG 432 1280 0
FLAG 352 736 G1
FLAG 352 896 G2
FLAG 352 1056 G3
FLAG 352 1216 G4
FLAG 400 784 sw1
FLAG 400 1104 sw3
FLAG 544 1456 G1
FLAG 544 1488 sw1
FLAG 544 1776 G2
FLAG 544 1584 G3
FLAG 544 1616 sw3
FLAG 544 1904 G4
FLAG 544 1936 0
FLAG 544 1808 sw2
FLAG 160 736 0
SYMBOL voltage 160 608 R0
WINDOW 0 32 56 VTop 2
WINDOW 3 -32 56 VBottom 2
WINDOW 123 0 0 Left 0
WINDOW 39 0 0 Left 0
SYMATTR InstName V1
SYMATTR Value 10
SYMBOL cap 560 992 R0
SYMATTR InstName C1
SYMATTR Value 22ｵ
SYMATTR SpiceLine Rser=3m Lser=0.9n
SYMBOL res 656 976 R0
SYMATTR InstName R1
SYMATTR Value 20
SYMBOL iNMOS 432 864 R0
SYMATTR InstName X2
SYMATTR Value esl={fetesl} rsnb=1k csnb=10p
SYMATTR SpiceLine ron={fetron}
SYMBOL iNMOS 432 1024 R0
SYMATTR InstName X3
SYMATTR Value esl={fetesl} rsnb=1k csnb=10p
SYMATTR SpiceLine ron={fetron}
SYMBOL iNMOS 432 704 R0
SYMATTR InstName X1
SYMATTR Value esl={fetesl} rsnb=1k csnb=10p
SYMATTR SpiceLine ron={fetron}
SYMBOL iNMOS 432 1184 R0
SYMATTR InstName X4
SYMATTR Value esl={fetesl} rsnb=1k csnb=10p
SYMATTR SpiceLine ron={fetron}
SYMBOL cap 208 912 R0
SYMATTR InstName Cfly1
SYMATTR Value 2.2ｵ
SYMATTR SpiceLine Rser=5m Lser=0.7n
SYMBOL iGD 464 1472 R0
SYMATTR InstName X5
SYMBOL iGD 464 1792 R0
SYMATTR InstName X6
SYMBOL DEADTIME 288 1712 R0
SYMATTR InstName X7
SYMBOL PowerSim\\VCO 144 1712 R0
SYMATTR InstName X8
SYMBOL PowerSim\\CONST 16 1712 R0
WINDOW 39 3 58 Bottom 2
SYMATTR SpiceLine K=50k
SYMATTR InstName X9
SYMBOL iGD 464 1600 R0
SYMATTR InstName X10
SYMBOL iGD 464 1920 R0
SYMATTR InstName X11
TEXT -536 496 Left 2 !.tran 0 1m 0.8m
TEXT -560 336 Left 6 ;Switched Capacitor Converter Ladder 2:1 Open-loop
TEXT 1288 248 Left 2 ;2026-3-21
TEXT -536 432 Left 2 !.options solver="norm"\n.options method="gear"
TEXT 504 648 Left 2 !.param fetron=100m\n.param fetesl=0.5n
