Version 4
SHEET 1 880 680
WIRE 80 176 -32 176
WIRE 128 176 80 176
WIRE 256 176 192 176
WIRE -32 192 -32 176
WIRE -32 304 -32 272
FLAG 256 176 out
FLAG 80 176 in
FLAG -32 304 0
SYMBOL PowerSim\\INVERSE 160 176 R0
SYMATTR InstName X1
SYMBOL voltage -32 176 R0
WINDOW 123 0 0 Left 0
WINDOW 39 0 0 Left 0
SYMATTR InstName V1
SYMATTR Value PWL(0 -10 1 10)
TEXT -64 328 Left 2 !.tran 1
