Version 4
SHEET 1 1940 1212
WIRE 800 -48 800 -64
WIRE 672 -16 432 -16
WIRE 768 -16 672 -16
WIRE 880 -16 832 -16
WIRE 944 -16 880 -16
WIRE 1072 -16 944 -16
WIRE 1248 -16 1072 -16
WIRE 432 32 432 -16
WIRE 672 48 672 -16
WIRE 384 112 368 112
WIRE 272 128 272 96
WIRE -48 160 -128 160
WIRE 128 160 -48 160
WIRE 240 160 208 160
WIRE 384 160 304 160
WIRE 432 160 432 128
WIRE 432 160 384 160
WIRE 880 160 880 -16
WIRE 1072 160 1072 -16
WIRE -128 192 -128 160
WIRE -48 192 -48 160
WIRE 1248 192 1248 -16
WIRE -16 208 -32 208
WIRE 1280 208 1264 208
WIRE -128 256 -128 224
WIRE -48 256 -48 224
WIRE -48 256 -128 256
WIRE 672 256 672 112
WIRE 672 256 -48 256
WIRE -128 288 -128 256
WIRE 432 304 432 160
WIRE 672 304 672 256
WIRE 384 384 368 384
WIRE -128 432 -128 288
WIRE -48 432 -128 432
WIRE 176 432 32 432
WIRE 432 432 432 400
WIRE 432 432 176 432
WIRE 672 432 672 368
WIRE 672 432 432 432
WIRE 880 432 880 224
WIRE 880 432 672 432
WIRE 1072 432 1072 240
WIRE 1072 432 880 432
WIRE 1248 432 1248 224
WIRE 1248 432 1072 432
WIRE -128 480 -128 432
WIRE -144 576 -224 576
WIRE 64 576 -144 576
WIRE 64 608 0 608
WIRE 224 608 160 608
WIRE 400 608 224 608
WIRE -144 640 -144 576
WIRE -112 640 -144 640
WIRE 64 640 -48 640
WIRE 1360 720 1328 720
WIRE 1232 736 1200 736
WIRE 1360 752 1328 752
WIRE 400 768 400 608
WIRE 432 768 400 768
WIRE -48 784 -224 784
WIRE 720 784 656 784
WIRE 768 784 720 784
WIRE 944 784 864 784
WIRE 1200 784 1200 736
WIRE 1200 784 1152 784
WIRE 240 800 176 800
WIRE 272 800 240 800
WIRE 368 800 336 800
WIRE 432 800 368 800
WIRE 1056 800 1008 800
WIRE -48 816 -144 816
WIRE 944 816 912 816
WIRE 1200 816 1152 816
WIRE 1360 848 1328 848
WIRE -144 864 -144 816
WIRE -144 864 -176 864
WIRE 1200 864 1200 816
WIRE 1232 864 1200 864
WIRE 1360 880 1328 880
WIRE 752 912 720 912
WIRE 864 912 816 912
WIRE 912 912 912 816
WIRE 912 912 864 912
WIRE 32 960 -48 960
WIRE 176 960 96 960
WIRE 304 960 304 832
WIRE 304 960 240 960
FLAG 368 112 G1
FLAG 368 384 G2
FLAG 384 160 SW1
FLAG 944 -16 link
FLAG -128 160 L
FLAG -128 288 N
FLAG 272 96 IL1
FLAG 1280 208 Vlink
FLAG -16 208 Vac
FLAG -224 784 Vlink
FLAG -48 960 Vac
FLAG -224 576 IL1
FLAG 1360 720 G1
FLAG 1360 752 SW1
FLAG 1360 848 G2
FLAG 720 912 Vac
FLAG 368 800 iref
FLAG 224 608 isns
FLAG 720 784 duty
FLAG 864 912 zd
FLAG 0 608 zd
FLAG -128 480 0
FLAG 800 -64 iout
FLAG 240 800 ve
FLAG 176 432 hvgnd
FLAG 1360 880 hvgnd
SYMBOL ind 112 176 R270
WINDOW 0 32 56 VTop 2
WINDOW 3 5 56 VBottom 2
SYMATTR InstName L1
SYMATTR Value 1m
SYMATTR SpiceLine Rser=1m
SYMBOL polcap 864 160 R0
WINDOW 3 24 56 Left 2
SYMATTR Value 2500µ
SYMATTR InstName Clink
SYMATTR Description Capacitor
SYMATTR Type cap
SYMATTR SpiceLine Rser=10m
SYMBOL res 1056 144 R0
SYMATTR InstName Rload
SYMATTR Value 200
SYMBOL IMON 272 160 M180
WINDOW 0 0 -26 Invisible 2
SYMATTR InstName X1
SYMBOL VMON 1248 208 R0
WINDOW 0 57 -5 Invisible 2
SYMATTR InstName X2
SYMBOL VAC1ph -128 208 R0
WINDOW 39 -25 15 Right 2
WINDOW 0 -27 -15 Right 2
SYMATTR SpiceLine Vac=200
SYMATTR InstName X4
SYMBOL PWM 816 784 R0
WINDOW 39 -56 41 Left 2
WINDOW 0 -1 -55 Top 2
SYMATTR InstName X9
SYMBOL DEADTIME 1104 800 R0
WINDOW 0 -3 -68 Top 2
WINDOW 39 -3 42 Top 2
SYMATTR InstName X10
SYMBOL CONST -208 864 R0
WINDOW 39 1 55 Bottom 2
SYMATTR SpiceLine K=400
SYMATTR InstName X5
SYMBOL VMON -48 208 R0
WINDOW 0 -23 0 Right 2
SYMATTR InstName X3
SYMBOL iGD 1280 736 R0
SYMATTR InstName X11
SYMBOL iGD 1280 864 R0
SYMATTR InstName X12
SYMBOL IMON 800 -16 M180
SYMATTR InstName X16
SYMBOL TYPE2 64 800 R0
WINDOW 0 -4 -53 Center 2
WINDOW 39 10 60 Center 2
WINDOW 40 10 88 Center 2
SYMATTR InstName X6
SYMATTR SpiceLine g=1 fz1=10 fp1=30
SYMBOL TYPE2 544 784 R0
WINDOW 0 -3 -53 Center 2
WINDOW 39 10 60 Center 2
WINDOW 40 10 88 Center 2
SYMATTR InstName X15
SYMATTR SpiceLine g=1 fz1=10k fp1=11k
SYMBOL ZCD 784 912 R0
WINDOW 0 1 -24 Bottom 2
SYMATTR InstName X8
SYMBOL GAIN 208 960 R0
WINDOW 39 3 58 Bottom 2
SYMATTR SpiceLine G=(1/20)
SYMATTR InstName X13
SYMBOL EXOR 976 800 R0
WINDOW 0 0 -40 Bottom 2
SYMATTR InstName X14
SYMBOL ABS 64 960 R0
SYMATTR InstName X17
SYMBOL GAIN -80 640 R0
WINDOW 39 3 58 Bottom 2
SYMATTR SpiceLine G=-1
SYMATTR InstName X19
SYMBOL MUL 304 800 R0
SYMATTR InstName X7
SYMBOL iNMOS 432 80 R0
SYMATTR InstName X20
SYMBOL iNMOS 432 352 R0
SYMATTR InstName X21
SYMBOL iD 672 80 R180
SYMATTR InstName X22
SYMBOL iD 672 336 R180
SYMATTR InstName X23
SYMBOL MUX 112 608 R0
SYMATTR InstName X18
TEXT -240 -184 Left 5 ;Single Phase Input Totempole Brigeless Boost PFC
TEXT -224 -120 Left 2 !.tran 0 70m 0 10n
TEXT 1040 -64 Left 2 !.ic V(link)=400
TEXT -224 -88 Left 2 !.save V(iref) V(vac) V(vlink) V(duty) V(sw1) V(isns) V(iout) V(ve) I(L1) V(hvgnd)
TEXT 1240 -160 Left 2 ;2024-12-29
