Version 4
SHEET 1 1712 1312
WIRE 816 176 800 176
WIRE 896 176 816 176
WIRE 1056 176 896 176
WIRE 800 208 800 176
WIRE 896 208 896 176
WIRE 1056 272 1056 176
WIRE 224 320 160 320
WIRE 352 320 320 320
WIRE 384 320 352 320
WIRE 512 320 480 320
WIRE 800 336 800 288
WIRE 896 336 896 272
WIRE 224 384 192 384
WIRE 352 384 320 384
WIRE 384 384 352 384
WIRE 512 384 480 384
WIRE 1056 400 1056 336
WIRE 1088 400 1056 400
WIRE 1136 400 1088 400
WIRE 1264 400 1216 400
WIRE 1328 400 1264 400
WIRE 352 416 352 384
WIRE 512 416 512 384
WIRE 1056 432 1056 400
WIRE 1328 464 1328 400
WIRE 80 512 64 512
WIRE 160 512 160 320
WIRE 160 512 144 512
WIRE 224 512 160 512
WIRE 1008 512 976 512
WIRE 496 528 448 528
WIRE 592 528 496 528
WIRE 768 528 688 528
WIRE 880 528 768 528
WIRE 192 544 192 384
WIRE 192 544 160 544
WIRE 224 544 192 544
WIRE 1056 544 1056 528
WIRE 1056 544 976 544
WIRE 1328 576 1328 544
WIRE 1056 592 1056 544
WIRE 160 608 160 544
WIRE 160 608 112 608
FLAG 1056 592 0
FLAG 1328 576 0
FLAG 896 336 0
FLAG 816 176 out
FLAG 1088 400 sw
FLAG 800 336 0
FLAG 768 528 pwm
FLAG 64 512 out
FLAG 1264 400 in
FLAG 496 528 duty
FLAG 352 416 0
FLAG 352 320 duty
FLAG 512 416 0
FLAG 512 320 out
SYMBOL voltage 1328 448 R0
WINDOW 0 32 56 VTop 2
WINDOW 3 -32 56 VBottom 2
WINDOW 123 0 0 Left 0
WINDOW 39 0 0 Left 0
SYMATTR InstName V1
SYMATTR Value 2.5
SYMBOL ind 1120 416 R270
WINDOW 0 32 56 VTop 2
WINDOW 3 5 56 VBottom 2
SYMATTR InstName L1
SYMATTR Value 10µ
SYMBOL cap 912 208 M0
SYMATTR InstName C1
SYMATTR Value 22µ
SYMATTR SpiceLine Rser=1m
SYMBOL iGD 928 528 R0
SYMATTR InstName X3
SYMBOL res 816 192 M0
SYMATTR InstName R1
SYMATTR Value 3.3
SYMBOL TYPE2 336 528 R0
WINDOW 0 0 -75 Center 2
WINDOW 39 2 58 Center 2
WINDOW 40 2 86 Center 2
SYMATTR InstName X13
SYMATTR SpiceLine g=0.1 fz1=1k fp1=5k
SYMATTR SpiceLine2 vh=0.7 vl=0
SYMBOL CONST 80 608 R0
WINDOW 39 0 51 Bottom 2
SYMATTR SpiceLine K=3.3
SYMATTR InstName X14
SYMBOL PWM 640 528 R0
WINDOW 39 -6 26 Top 2
SYMATTR SpiceLine freq=1Meg
SYMATTR InstName X5
SYMBOL fra 144 512 R270
WINDOW 0 16 -32 VTop 2
SYMATTR InstName @1
SYMATTR SpiceLine delay=3m fstart=31.25 fend=8K oct=2 fcoarse=250 nmax=2 pp0=105.6m pp1=6.6m f0=31.25 f1=500 tavgmin=100µ tsettle=2m
SYMBOL fraprobe 272 400 R0
SYMATTR InstName &1comp
SYMBOL fraprobe 432 400 R0
SYMATTR InstName &1plant
SYMBOL iNMOS 1056 480 R0
SYMATTR InstName X1
SYMBOL iD 1056 304 R180
SYMATTR InstName X2
TEXT 136 96 Left 2 !.tran 0 5m 4.95m 10n
TEXT 104 -16 Left 6 ;Voltage Mode Control Boost
TEXT 480 96 Left 2 !.save V(out) I(L1) V(sw) V(vc)
TEXT 136 128 Left 2 ;.fra
TEXT 1152 40 Left 2 ;2024-12-29
