Version 4
SHEET 1 1712 1312
WIRE 736 16 720 16
WIRE 816 16 736 16
WIRE 1120 16 816 16
WIRE 720 48 720 16
WIRE 816 48 816 16
WIRE 1120 96 1120 16
WIRE 720 176 720 128
WIRE 816 176 816 112
WIRE 1072 176 1040 176
WIRE 944 192 912 192
WIRE 1120 208 1120 192
WIRE 1120 208 1040 208
WIRE 1328 208 1328 192
WIRE 1120 240 1120 208
WIRE 1152 240 1120 240
WIRE 1200 240 1152 240
WIRE 1296 240 1280 240
WIRE 1408 240 1360 240
WIRE 1440 240 1408 240
WIRE 912 272 912 192
WIRE 912 272 880 272
WIRE 1120 272 1120 240
WIRE 304 288 272 288
WIRE 432 288 400 288
WIRE 544 288 496 288
WIRE 560 288 544 288
WIRE 704 288 640 288
WIRE 784 288 704 288
WIRE 912 304 880 304
WIRE 1440 304 1440 240
WIRE 544 320 528 320
WIRE 560 320 544 320
WIRE 1072 352 1040 352
WIRE 912 368 912 304
WIRE 944 368 912 368
WIRE 1120 384 1120 368
WIRE 1120 384 1040 384
WIRE -144 416 -176 416
WIRE -64 416 -80 416
WIRE -32 416 -64 416
WIRE 1440 416 1440 384
WIRE 272 432 192 432
WIRE 400 432 272 432
WIRE 1120 432 1120 384
WIRE -80 448 -112 448
WIRE -32 448 -80 448
WIRE 528 448 528 320
WIRE 528 448 480 448
WIRE 288 464 256 464
WIRE 400 464 352 464
WIRE -112 496 -112 448
WIRE -112 496 -128 496
WIRE 208 576 176 576
WIRE 320 576 320 496
WIRE 320 576 272 576
WIRE -64 768 -64 416
WIRE -32 768 -64 768
WIRE 80 768 64 768
WIRE 96 768 80 768
WIRE 208 768 192 768
WIRE -80 832 -80 448
WIRE -32 832 -80 832
WIRE 80 832 64 832
WIRE 96 832 80 832
WIRE 208 832 192 832
WIRE 80 864 80 832
WIRE 208 864 208 832
FLAG 1120 432 0
FLAG 1440 416 0
FLAG 816 176 0
FLAG 736 16 out
FLAG 1152 240 sw
FLAG 272 432 vc
FLAG 720 176 0
FLAG 704 288 pwm
FLAG 1328 192 IL
FLAG 256 464 IL
FLAG 544 288 s
FLAG 544 320 r
FLAG 176 576 pwm
FLAG 320 576 slope
FLAG -176 416 out
FLAG 1408 240 in
FLAG 80 768 vc
FLAG 80 864 0
FLAG 208 864 0
FLAG 208 768 out
SYMBOL voltage 1440 288 R0
WINDOW 0 32 56 VTop 2
WINDOW 3 -32 56 VBottom 2
WINDOW 123 0 0 Left 0
WINDOW 39 0 0 Left 0
SYMATTR InstName V1
SYMATTR Value 3
SYMBOL ind 1184 256 R270
WINDOW 0 32 56 VTop 2
WINDOW 3 5 56 VBottom 2
SYMATTR InstName L1
SYMATTR Value 10µ
SYMATTR SpiceLine Rser=10m
SYMBOL cap 832 48 M0
SYMATTR InstName C1
SYMATTR Value 22µ
SYMATTR SpiceLine Rser=1m
SYMBOL iGD 992 192 R0
SYMATTR InstName X2
SYMBOL iGD 992 368 R0
SYMATTR InstName X3
SYMBOL res 736 32 M0
SYMATTR InstName R1
SYMATTR Value 10
SYMBOL IMON 1328 240 R180
SYMATTR InstName X4
SYMBOL VCO 352 288 R0
SYMATTR InstName X6
SYMBOL POSEDGE 464 288 R0
WINDOW 39 5 51 Bottom 2
SYMATTR SpiceLine TD=10n
SYMATTR InstName X7
SYMBOL CONST 240 288 R0
WINDOW 39 0 53 Bottom 2
SYMATTR SpiceLine K=1Meg
SYMATTR InstName X8
SYMBOL CMP 448 448 R0
SYMATTR InstName X9
SYMBOL SRFF 592 304 R0
SYMATTR InstName X11
SYMBOL SLOPE 240 576 R0
WINDOW 39 80 59 Bottom 2
SYMATTR SpiceLine Se={((5-3)/10u)*0.1}
SYMATTR InstName X12
SYMBOL TYPE2 80 432 R0
WINDOW 0 0 -75 Center 2
WINDOW 39 2 58 Center 2
WINDOW 40 2 86 Center 2
SYMATTR InstName X13
SYMATTR SpiceLine g=4 fz1=1k fp1=100k
SYMATTR SpiceLine2 vh=10 vl=-10
SYMBOL CONST -160 496 R0
WINDOW 39 0 51 Bottom 2
SYMATTR SpiceLine K=5
SYMATTR InstName X14
SYMBOL fra -80 416 R270
WINDOW 0 16 -32 VTop 2
SYMATTR InstName @1
SYMATTR SpiceLine delay=1m fstart=1k fend=500k oct=2 nmax=2 pp0=20m pp1=20m f0=1k f1=100k tavgmin=100µ tsettle=1m
SYMBOL fraprobe 16 848 R0
SYMATTR InstName &1comp
SYMBOL fraprobe 144 848 R0
SYMATTR InstName &1plant
SYMBOL SUM 320 464 R0
WINDOW 0 38 37 Bottom 2
SYMATTR InstName X5
SYMBOL DEADTIME 832 288 M180
WINDOW 0 3 70 Bottom 2
WINDOW 39 7 -47 Bottom 2
SYMATTR InstName X10
SYMBOL iNMOS 1120 144 R0
SYMATTR InstName X1
SYMBOL iNMOS 1120 320 R0
SYMATTR InstName X15
TEXT -152 32 Left 2 ;.tran 1m
TEXT -224 -96 Left 6 ;Peak Current Mode Control Boost
TEXT 224 24 Left 2 !.save V(out) I(L1) V(sw) V(vc)
TEXT -152 64 Left 2 !.fra
TEXT 1176 -64 Left 2 ;2024-12-29
