Version 4
SHEET 1 2056 1312
WIRE 992 176 768 176
WIRE 1040 176 992 176
WIRE 768 208 768 176
WIRE 176 240 64 240
WIRE 304 240 272 240
WIRE 336 240 304 240
WIRE 448 240 432 240
WIRE 1040 256 1040 176
WIRE 176 304 96 304
WIRE 304 304 272 304
WIRE 336 304 304 304
WIRE 464 304 432 304
WIRE 768 320 768 288
WIRE 304 336 304 304
WIRE 464 336 464 304
WIRE 992 336 960 336
WIRE -16 352 -32 352
WIRE 64 352 64 240
WIRE 64 352 48 352
WIRE 864 352 832 352
WIRE 1040 368 1040 352
WIRE 1040 368 960 368
WIRE 1040 400 1040 368
WIRE 1072 400 1040 400
WIRE 1136 400 1072 400
WIRE 1312 400 1216 400
WIRE 1392 400 1312 400
WIRE 1408 400 1392 400
WIRE 64 432 64 352
WIRE 128 432 64 432
WIRE 832 432 832 352
WIRE 832 432 784 432
WIRE 1040 432 1040 400
WIRE 400 448 352 448
WIRE 448 448 400 448
WIRE 624 448 544 448
WIRE 688 448 624 448
WIRE 1312 448 1312 400
WIRE 1408 448 1408 400
WIRE 96 464 96 304
WIRE 96 464 16 464
WIRE 128 464 96 464
WIRE 832 464 784 464
WIRE 992 512 960 512
WIRE 832 528 832 464
WIRE 864 528 832 528
WIRE 1040 544 1040 528
WIRE 1040 544 960 544
WIRE 1040 592 1040 544
WIRE 1312 592 1312 512
WIRE 1408 592 1408 528
FLAG 1040 592 0
FLAG 768 320 0
FLAG 1312 592 0
FLAG 1392 400 out
FLAG 992 176 in
FLAG 1072 400 sw
FLAG 400 448 duty
FLAG 1408 592 0
FLAG 624 448 pwm
FLAG -32 352 out
FLAG 304 240 duty
FLAG 464 336 0
FLAG 448 240 out
FLAG 304 336 0
SYMBOL ind 1120 416 R270
WINDOW 0 32 56 VTop 2
WINDOW 3 5 56 VBottom 2
SYMATTR InstName L1
SYMATTR Value 10µ
SYMATTR SpiceLine Rser=10m
SYMBOL cap 1296 448 R0
SYMATTR InstName C1
SYMATTR Value 22µ
SYMATTR SpiceLine Rser=1m
SYMBOL iGD 912 352 R0
SYMATTR InstName X2
SYMBOL iGD 912 528 R0
SYMATTR InstName X3
SYMBOL DEADTIME 736 448 R0
WINDOW 39 5 76 Bottom 2
SYMATTR InstName X1
SYMBOL res 1392 432 R0
SYMATTR InstName R1
SYMATTR Value 1
SYMBOL PWM 496 448 R0
WINDOW 39 -59 41 Left 2
SYMATTR SpiceLine freq=2Meg
SYMATTR InstName X4
SYMBOL CONST -16 464 R0
WINDOW 39 3 25 Top 2
SYMATTR InstName X6
SYMBOL TYPE3 240 448 R0
WINDOW 39 -4 73 Top 2
WINDOW 0 -23 -54 Left 2
WINDOW 40 -68 114 Left 2
WINDOW 3 -119 58 Left 2
SYMATTR SpiceLine fp1=200k fp2=210k
SYMATTR InstName X5
SYMATTR Value g=0.3 fz1=3k fz2=5k
SYMBOL fra 48 352 R270
WINDOW 0 16 -32 VTop 2
SYMATTR InstName @1
SYMATTR SpiceLine delay=2m fstart=1k fend=100k oct=2 flist=10.7k nmax=2 pp0=20m pp1=10m f0=1k f1=100k
SYMBOL fraprobe 384 320 R0
SYMATTR InstName &1plant
SYMBOL fraprobe 224 320 R0
SYMATTR InstName &1comp
SYMBOL voltage 768 192 R0
SYMATTR InstName V1
SYMATTR Value 5
SYMBOL iNMOS 1040 304 R0
SYMATTR InstName X7
SYMBOL iNMOS 1040 480 R0
SYMATTR InstName X8
TEXT 600 8 Left 2 ;.tran 0 5m 1m 10n
TEXT 8 32 Left 2 !.save V(out) V(sw) I(L1) V(duty)
TEXT 600 40 Left 2 !.fra
TEXT -16 -72 Left 5 ;Voltage Mode Synchronous Buck
TEXT 960 -64 Left 2 ;2024-12-29
TEXT 8 -8 Left 2 ;Vin=5V, Vout=1V/1A, fsw=2MHz
TEXT 1288 344 Left 2 !.ic V(out)=1
TEXT 1120 336 Left 2 !.ic I(L1)=0
