Version 4
SHEET 1 2384 1372
WIRE -80 -16 -224 -16
WIRE 112 -16 -80 -16
WIRE 288 -16 112 -16
WIRE 1424 -16 1248 -16
WIRE 1520 -16 1424 -16
WIRE 1584 -16 1520 -16
WIRE 1648 -16 1584 -16
WIRE 1760 -16 1648 -16
WIRE 112 0 112 -16
WIRE 288 0 288 -16
WIRE 1248 0 1248 -16
WIRE 1424 0 1424 -16
WIRE -224 64 -224 -16
WIRE 64 80 48 80
WIRE 240 80 224 80
WIRE 368 80 368 64
WIRE 1104 80 1104 64
WIRE 1200 80 1184 80
WIRE 1376 80 1360 80
WIRE 112 112 112 96
WIRE 144 112 112 112
WIRE 336 112 144 112
WIRE 432 112 400 112
WIRE 528 112 496 112
WIRE 720 112 608 112
WIRE 832 112 784 112
WIRE 960 112 912 112
WIRE 1072 112 1024 112
WIRE 1216 112 1136 112
WIRE 1248 112 1248 96
WIRE 1248 112 1216 112
WIRE 1760 112 1760 -16
WIRE -80 128 -80 -16
WIRE 1648 128 1648 -16
WIRE 1520 144 1520 -16
WIRE 288 192 288 96
WIRE 320 192 288 192
WIRE 720 192 320 192
WIRE 1392 192 784 192
WIRE 1424 192 1424 96
WIRE 1424 192 1392 192
WIRE 112 208 112 112
WIRE 288 208 288 192
WIRE 1248 208 1248 112
WIRE 1424 208 1424 192
WIRE 64 288 48 288
WIRE 240 288 224 288
WIRE 1200 288 1184 288
WIRE 1376 288 1360 288
WIRE -224 320 -224 144
WIRE -144 320 -224 320
WIRE -80 320 -80 192
WIRE -80 320 -144 320
WIRE 112 320 112 304
WIRE 112 320 -80 320
WIRE 288 320 288 304
WIRE 288 320 112 320
WIRE 704 320 288 320
WIRE 1248 320 1248 304
WIRE 1248 320 768 320
WIRE 1424 320 1424 304
WIRE 1424 320 1248 320
WIRE 1472 320 1424 320
WIRE 1520 320 1520 208
WIRE 1520 320 1472 320
WIRE 1648 320 1648 208
WIRE 1648 320 1520 320
WIRE 1760 320 1760 192
WIRE 1760 320 1648 320
WIRE 1472 352 1472 320
WIRE 1088 544 1056 544
WIRE 1744 544 1712 544
WIRE 960 560 928 560
WIRE 1616 560 1584 560
WIRE 1088 576 1056 576
WIRE 1744 576 1712 576
WIRE 928 608 928 560
WIRE 928 608 896 608
WIRE 1584 608 1584 560
WIRE 1584 608 1552 608
WIRE 800 624 752 624
WIRE 1456 624 1392 624
WIRE 928 640 896 640
WIRE 1584 640 1552 640
WIRE 144 672 64 672
WIRE 1088 672 1056 672
WIRE 1744 672 1712 672
WIRE 928 688 928 640
WIRE 960 688 928 688
WIRE 1584 688 1584 640
WIRE 1616 688 1584 688
WIRE 432 704 384 704
WIRE 1088 704 1056 704
WIRE 1744 704 1712 704
WIRE 144 720 144 672
WIRE 192 720 144 720
WIRE 432 736 384 736
WIRE 1744 736 1744 704
WIRE 192 752 -48 752
WIRE 432 768 384 768
WIRE 192 784 144 784
WIRE 432 800 384 800
WIRE 1088 832 1056 832
WIRE 1744 832 1712 832
WIRE 144 848 144 784
WIRE 144 848 64 848
WIRE 960 848 928 848
WIRE 1616 848 1584 848
WIRE 1088 864 1056 864
WIRE 1744 864 1712 864
WIRE 928 896 928 848
WIRE 928 896 896 896
WIRE 1584 896 1584 848
WIRE 1584 896 1552 896
WIRE 800 912 752 912
WIRE 1456 912 1392 912
WIRE 928 928 896 928
WIRE 1584 928 1552 928
WIRE 1088 960 1056 960
WIRE 1744 960 1712 960
WIRE 928 976 928 928
WIRE 960 976 928 976
WIRE 1584 976 1584 928
WIRE 1616 976 1584 976
WIRE 1088 992 1056 992
WIRE 1744 992 1712 992
WIRE 1744 1008 1744 992
FLAG 48 80 g1
FLAG 48 288 g2
FLAG 144 112 sw1
FLAG 224 80 g3
FLAG 224 288 g4
FLAG 320 192 sw2
FLAG 1584 -16 out
FLAG 1088 544 g1
FLAG 1088 576 sw1
FLAG 1088 672 g2
FLAG 1088 832 g3
FLAG 1088 864 sw2
FLAG 1088 960 g4
FLAG -144 320 hvgnd
FLAG 1088 992 hvgnd
FLAG 1088 704 hvgnd
FLAG 1216 112 sw3
FLAG 1392 192 sw4
FLAG 1472 352 0
FLAG 1184 80 g5
FLAG 1184 288 g6
FLAG 1360 80 g7
FLAG 1360 288 g8
FLAG 1744 544 g5
FLAG 1744 576 sw3
FLAG 1744 672 g6
FLAG 1744 832 g7
FLAG 1744 864 sw4
FLAG 1744 960 g8
FLAG 1744 1008 0
FLAG 1744 736 0
FLAG 368 64 itank1
FLAG 1104 64 itank2
FLAG 752 912 pwm2
FLAG 432 736 pwm2
FLAG 432 704 pwm1
FLAG 432 800 pwm4
FLAG 432 768 pwm3
FLAG 752 624 pwm1
FLAG 1392 624 pwm3
FLAG 1392 912 pwm4
SYMBOL voltage -224 48 R0
WINDOW 123 0 0 Left 0
WINDOW 39 0 0 Left 0
SYMATTR InstName V1
SYMATTR Value 400
SYMBOL ind2 704 208 M180
WINDOW 0 0 113 Left 2
WINDOW 3 -20 -6 Left 2
SYMATTR InstName Lp
SYMATTR Value 50µ
SYMATTR SpiceLine Rser=1m
SYMBOL ind2 800 208 R180
WINDOW 0 9 113 Left 2
WINDOW 3 -26 -4 Left 2
SYMATTR InstName Ls
SYMATTR Value 30µ
SYMATTR SpiceLine Rser=1m
SYMBOL DEADTIME 848 624 R0
WINDOW 39 2 74 Bottom 2
SYMATTR SpiceLine dt=100n
SYMATTR InstName X3
SYMBOL iGD 1008 560 R0
WINDOW 0 -3 -70 Top 2
SYMATTR InstName X4
SYMBOL iGD 1008 688 R0
WINDOW 0 0 -69 Top 2
SYMATTR InstName X5
SYMBOL DEADTIME 848 912 R0
WINDOW 39 9 73 Bottom 2
SYMATTR SpiceLine dt=100n
SYMATTR InstName X6
SYMBOL iGD 1008 848 R0
WINDOW 0 2 -70 Top 2
SYMATTR InstName X7
SYMBOL iGD 1008 976 R0
WINDOW 0 1 -64 Top 2
SYMATTR InstName X8
SYMBOL cap 496 96 R90
WINDOW 0 0 32 VBottom 2
WINDOW 3 32 32 VTop 2
SYMATTR InstName Cr1
SYMATTR Value 80n
SYMBOL ind 512 128 R270
WINDOW 0 32 56 VTop 2
WINDOW 3 5 56 VBottom 2
SYMATTR InstName Lr1
SYMATTR Value 15µ
SYMATTR SpiceLine Rser=10m
SYMBOL ind 816 128 R270
WINDOW 0 32 56 VTop 2
WINDOW 3 5 56 VBottom 2
SYMATTR InstName Lr2
SYMATTR Value 15µ
SYMATTR SpiceLine Rser=10m
SYMBOL cap 1024 96 R90
WINDOW 0 0 32 VBottom 2
WINDOW 3 32 32 VTop 2
SYMATTR InstName Cr2
SYMATTR Value 115n
SYMBOL DEADTIME 1504 624 R0
WINDOW 39 1 71 Bottom 2
SYMATTR SpiceLine dt=100n
SYMATTR InstName X15
SYMBOL iGD 1664 560 R0
WINDOW 0 3 -69 Top 2
SYMATTR InstName X16
SYMBOL iGD 1664 688 R0
WINDOW 0 2 -67 Top 2
SYMATTR InstName X17
SYMBOL DEADTIME 1504 912 R0
WINDOW 39 4 72 Bottom 2
SYMATTR SpiceLine dt=100n
SYMATTR InstName X18
SYMBOL iGD 1664 848 R0
WINDOW 0 1 -63 Top 2
SYMATTR InstName X19
SYMBOL iGD 1664 976 R0
WINDOW 0 -1 -68 Top 2
SYMATTR InstName X20
SYMBOL IMON 368 112 M180
SYMATTR InstName X21
SYMBOL IMON 1104 112 R180
SYMATTR InstName X22
SYMBOL PHASESHIFT3 288 752 R0
SYMATTR InstName X2
SYMBOL CONST 32 672 R0
WINDOW 39 3 57 Bottom 2
SYMATTR SpiceLine K=150k
SYMATTR InstName X9
SYMBOL CONST -80 752 R0
WINDOW 39 5 54 Bottom 2
SYMATTR SpiceLine K=90
SYMATTR InstName X10
SYMBOL CONST 32 848 R0
WINDOW 39 5 59 Bottom 2
SYMATTR SpiceLine K=45
SYMATTR InstName X11
SYMBOL polcap -96 128 R0
WINDOW 3 24 56 Left 2
SYMATTR Value 1000µ
SYMATTR InstName C1
SYMATTR Description Capacitor
SYMATTR Type cap
SYMATTR SpiceLine Rser=0.03
SYMBOL polcap 1504 144 R0
WINDOW 3 24 56 Left 2
SYMATTR Value 1000µ
SYMATTR InstName C2
SYMATTR Description Capacitor
SYMATTR Type cap
SYMATTR SpiceLine Rser=0.03
SYMBOL res 1632 112 R0
SYMATTR InstName Rload
SYMATTR Value 100
SYMBOL cap 768 304 R90
WINDOW 0 0 32 VBottom 2
WINDOW 3 32 32 VTop 2
SYMATTR InstName C3
SYMATTR Value 10p
SYMBOL iNMOS 112 48 R0
SYMATTR InstName X1
SYMBOL iNMOS 112 256 R0
SYMATTR InstName X12
SYMBOL iNMOS 288 48 R0
SYMATTR InstName X13
SYMBOL iNMOS 288 256 R0
SYMATTR InstName X14
SYMBOL iNMOS 1248 48 R0
SYMATTR InstName X23
SYMBOL iNMOS 1248 256 R0
SYMATTR InstName X24
SYMBOL iNMOS 1424 48 R0
SYMATTR InstName X25
SYMBOL iNMOS 1424 256 R0
SYMATTR InstName X26
TEXT 680 56 Left 2 !K Lp Ls 0.999
TEXT -208 416 Left 2 !.tran 0 1m 0.95m 10n
TEXT -240 -168 Left 6 ;CLLLC converter - Open-loop
TEXT -208 448 Left 2 !;.save V(vout) V(sw3) V(sw4) V(sw1) V(sw2) V(freq) I(Lr) I(Cout) V(freq)
TEXT 1544 -80 Left 2 !.ic V(out)=300
TEXT 1504 -160 Left 2 ;2024-12-29
LINE Normal 747 204 747 92 1
LINE Normal 755 204 755 92 1
