Version 4
SHEET 1 1968 1068
WIRE 800 80 752 80
WIRE 832 80 800 80
WIRE 832 112 832 80
WIRE 832 208 832 192
WIRE 720 240 624 240
WIRE 816 240 720 240
WIRE 208 288 144 288
WIRE 368 288 304 288
WIRE 432 288 368 288
WIRE 624 288 624 240
WIRE 624 288 560 288
WIRE 832 304 832 272
WIRE 944 304 832 304
WIRE 1024 304 944 304
WIRE 1120 304 1024 304
WIRE 1200 304 1120 304
WIRE 1344 304 1296 304
WIRE 368 320 352 320
WIRE 432 320 368 320
WIRE 624 320 560 320
WIRE 832 336 832 304
WIRE 1120 336 1120 304
WIRE 624 368 624 320
WIRE 736 368 624 368
WIRE 816 368 736 368
WIRE 1024 368 1024 304
WIRE 832 416 832 400
WIRE 1120 432 1120 416
WIRE 832 528 832 496
WIRE 1024 528 1024 432
WIRE 1120 528 1120 496
WIRE 352 592 352 320
WIRE 1344 592 1344 304
WIRE 1344 592 352 592
FLAG 1024 528 0
FLAG 832 528 0
FLAG 944 304 freq
FLAG 368 288 ref
FLAG 368 320 vco
FLAG 720 240 up
FLAG 736 368 down
FLAG 1120 528 0
FLAG 800 80 fmax
SYMBOL PowerSim\\CONTACTOR 816 240 R270
SYMATTR InstName X3
SYMBOL PowerSim\\CONTACTOR 816 368 R270
SYMATTR InstName X4
SYMBOL cap 1008 368 R0
SYMATTR InstName C2
SYMATTR Value 100p
SYMATTR SpiceLine Rser=1m
SYMBOL current 832 112 R0
WINDOW 123 0 0 Left 0
WINDOW 39 44 61 Left 2
WINDOW 0 45 1 Left 2
WINDOW 3 41 31 Left 2
SYMATTR SpiceLine load
SYMATTR InstName I1
SYMATTR Value {gm}
SYMBOL PowerSim\\VCO 1248 304 R0
SYMATTR InstName X1
SYMBOL current 832 416 R0
WINDOW 123 0 0 Left 0
WINDOW 39 24 108 Left 2
SYMATTR SpiceLine load
SYMATTR InstName I2
SYMATTR Value {gm}
SYMBOL PowerSim\\CONST 720 80 R0
WINDOW 39 1 55 Bottom 2
SYMATTR SpiceLine K=5Meg
SYMATTR InstName X7
SYMBOL PowerSim\\CONST 112 288 R0
WINDOW 39 1 55 Bottom 2
SYMATTR SpiceLine K=0.5
SYMATTR InstName X8
SYMBOL res 1104 320 R0
SYMATTR InstName R1
SYMATTR Value 10k
SYMBOL cap 1104 432 R0
SYMATTR InstName C1
SYMATTR Value 10n
SYMBOL PowerSim\\PWM 256 288 R0
SYMATTR InstName X2
SYMATTR SpiceLine freq=2Meg
SYMBOL PFD 496 304 R0
SYMATTR InstName X5
TEXT 48 -48 Left 6 ;Charge Pump PLL
TEXT 1160 -32 Left 2 ;2025-02-23
TEXT 144 584 Left 2 !.tran 2m
TEXT 952 248 Left 2 !.ic V(freq)=2Meg
TEXT 872 64 Left 2 !.param gm=1
