Version 4.1
SHEET 1 1716 1312
WIRE 672 -176 656 -176
WIRE 800 -176 672 -176
WIRE 864 -176 800 -176
WIRE 1008 -176 864 -176
WIRE 864 -144 864 -176
WIRE 800 -128 800 -176
WIRE 1168 -128 1088 -128
WIRE 1296 -128 1232 -128
WIRE 1344 -128 1296 -128
WIRE 1440 -128 1344 -128
WIRE 1552 -128 1440 -128
WIRE 656 -112 656 -176
WIRE 1008 -96 1008 -176
WIRE 1088 -96 1088 -128
WIRE 1344 -96 1344 -128
WIRE 1440 -96 1440 -128
WIRE 1552 -80 1552 -128
WIRE 1584 -64 1568 -64
WIRE 800 -16 800 -64
WIRE 864 -16 864 -64
WIRE 864 -16 800 -16
WIRE 1216 -16 1216 -32
WIRE 656 0 656 -32
WIRE 1088 16 1088 -16
WIRE 1184 16 1088 16
WIRE 1344 16 1344 -32
WIRE 1344 16 1248 16
WIRE 1440 16 1440 -16
WIRE 1440 16 1344 16
WIRE 1488 16 1440 16
WIRE 1552 16 1552 -48
WIRE 1552 16 1488 16
WIRE 864 48 864 -16
WIRE 912 48 864 48
WIRE 1008 48 1008 -16
WIRE 1008 48 976 48
WIRE 1008 80 1008 48
WIRE 976 112 960 112
WIRE 1008 176 1008 144
WIRE 1008 192 1008 176
WIRE 960 272 912 272
WIRE 128 288 96 288
WIRE 224 288 192 288
WIRE 304 288 224 288
WIRE 432 288 368 288
WIRE 544 288 496 288
WIRE 560 288 544 288
WIRE 704 288 640 288
WIRE 816 288 704 288
WIRE 1008 304 1008 288
WIRE 1008 304 912 304
WIRE 544 320 528 320
WIRE 560 320 544 320
WIRE 1008 352 1008 304
WIRE 1184 352 1008 352
WIRE 1488 352 1488 16
WIRE 1488 352 1248 352
WIRE 1008 384 1008 352
WIRE -32 416 -128 416
WIRE 272 432 192 432
WIRE 400 432 272 432
WIRE -32 448 -112 448
WIRE 528 448 528 320
WIRE 528 448 480 448
WIRE 288 464 256 464
WIRE 400 464 352 464
WIRE -112 496 -112 448
WIRE -112 496 -128 496
WIRE 208 576 176 576
WIRE 320 576 320 496
WIRE 320 576 272 576
FLAG 656 0 0
FLAG 1008 176 sw
FLAG 272 432 vc
FLAG 704 288 pwm
FLAG 544 288 s
FLAG 544 320 r
FLAG 176 576 pwm
FLAG 320 576 slope
FLAG 672 -176 in
FLAG 1008 384 0
FLAG 960 112 ifet
FLAG 1296 -128 out
FLAG 1584 -64 vout
FLAG -128 416 vout
FLAG 256 464 ifet
FLAG 1216 -32 il2
FLAG 96 288 il2
FLAG 224 288 zd
SYMBOL voltage 656 -128 R0
WINDOW 0 32 56 VTop 2
WINDOW 3 -32 56 VBottom 2
WINDOW 123 0 0 Left 0
WINDOW 39 0 0 Left 0
SYMATTR InstName V1
SYMATTR Value 24
SYMBOL ind2 992 -112 R0
WINDOW 0 -31 35 Left 2
WINDOW 3 -46 71 Left 2
SYMATTR InstName L1
SYMATTR Value 10u
SYMATTR SpiceLine Rser=10m
SYMATTR Type ind
SYMBOL IMON 1008 112 R90
SYMATTR InstName X4
SYMBOL POSEDGE 464 288 R0
WINDOW 39 5 51 Bottom 2
SYMATTR SpiceLine TD=10n
SYMATTR InstName X7
SYMBOL CMP 448 448 R0
SYMATTR InstName X9
SYMBOL SRFF 592 304 R0
SYMATTR InstName X11
SYMBOL SLOPE 240 576 R0
WINDOW 39 80 59 Bottom 2
SYMATTR SpiceLine Se={(24/10u)*0.1}
SYMATTR InstName X12
SYMBOL TYPE2 80 432 R0
WINDOW 0 0 -56 Center 2
WINDOW 39 2 58 Center 2
WINDOW 40 2 86 Center 2
SYMATTR InstName X13
SYMATTR SpiceLine g=4 fz1=1k fp1=100k
SYMBOL CONST -160 496 R0
WINDOW 39 0 51 Bottom 2
SYMATTR SpiceLine K=5
SYMATTR InstName X10
SYMBOL SUM 320 464 R0
WINDOW 0 38 37 Bottom 2
SYMATTR InstName X5
SYMBOL PowerSim\\GD 864 288 R0
WINDOW 39 2 69 Bottom 2
WINDOW 40 2 97 Bottom 2
SYMATTR SpiceLine vdd=10 vss=0
SYMATTR SpiceLine2 ron=1 roff=0.1
SYMATTR InstName X1
SYMBOL nmos 960 192 R0
SYMATTR InstName M1
SYMATTR Value IPI075N15N3
SYMBOL res 848 -160 R0
SYMATTR InstName R1
SYMATTR Value 1k
SYMBOL ind2 1104 0 R180
WINDOW 0 -33 80 Left 2
WINDOW 3 -42 41 Left 2
SYMATTR InstName L2
SYMATTR Value 10u
SYMATTR SpiceLine Rser=10m
SYMATTR Type ind
SYMBOL PowerSim\\iD 1200 -128 R270
WINDOW 0 16 0 VTop 2
SYMATTR InstName X2
SYMBOL cap 1328 -96 R0
SYMATTR InstName C1
SYMATTR Value 22u
SYMATTR SpiceLine Rser=1m
SYMBOL res 1424 -112 R0
SYMATTR InstName R2
SYMATTR Value 10
SYMBOL PowerSim\\VMON 1552 -64 R0
SYMATTR InstName X3
SYMBOL cap 816 -128 M0
SYMATTR InstName C2
SYMATTR Value 10u
SYMATTR SpiceLine Rser=1m
SYMBOL IMON 1216 16 R180
SYMATTR InstName X14
SYMBOL PowerSim\\ZCD 160 288 R0
SYMATTR InstName X8
SYMBOL Digital\\inv 304 224 R0
SYMATTR InstName A1
SYMBOL cap 1248 336 R90
WINDOW 0 0 32 VBottom 2
WINDOW 3 32 32 VTop 2
SYMATTR InstName C3
SYMATTR Value 10p
SYMBOL PowerSim\\iD 944 48 R90
WINDOW 0 -16 0 VBottom 2
SYMATTR InstName X6
TEXT -120 -160 Left 2 !.tran 0 1m 0.98m uic
TEXT -144 -304 Left 6 ;Flyback, Boundary Mode
TEXT 1360 -272 Left 2 ;2025-05-31
TEXT 976 -216 Left 2 !K L1 L2 0.99
TEXT 1400 -160 Left 2 !.ic V(out)=5
TEXT -120 -232 Left 2 ;Note: Run with Alternate mode.
TEXT 696 576 Left 2 ;2024-12-31    Initial release\n2025-05-31    enabled skp initial operation point solution "uic"
