Version 4
SHEET 1 1968 1000
WIRE 128 -16 -16 -16
WIRE 320 -16 128 -16
WIRE 544 -16 320 -16
WIRE 1024 -16 912 -16
WIRE 1120 -16 1024 -16
WIRE 1248 -16 1200 -16
WIRE 1360 -16 1248 -16
WIRE 1440 -16 1360 -16
WIRE 1488 -16 1440 -16
WIRE 320 0 320 -16
WIRE 544 0 544 -16
WIRE 912 16 912 -16
WIRE 1024 16 1024 -16
WIRE -16 64 -16 -16
WIRE 272 80 256 80
WIRE 496 80 480 80
WIRE 320 112 320 96
WIRE 352 112 320 112
WIRE 720 112 352 112
WIRE 848 112 784 112
WIRE 912 112 912 80
WIRE 912 112 848 112
WIRE 1248 112 1248 -16
WIRE 1360 112 1360 -16
WIRE 128 128 128 -16
WIRE 1488 128 1488 -16
WIRE 1536 144 1504 144
WIRE 544 192 544 96
WIRE 576 192 544 192
WIRE 720 192 576 192
WIRE 992 192 784 192
WIRE 1024 192 1024 80
WIRE 1024 192 992 192
WIRE 320 208 320 112
WIRE 544 208 544 192
WIRE 912 224 912 112
WIRE 1024 224 1024 192
WIRE 272 288 256 288
WIRE 496 288 480 288
WIRE -16 320 -16 144
WIRE 64 320 -16 320
WIRE 128 320 128 192
WIRE 128 320 64 320
WIRE 320 320 320 304
WIRE 320 320 128 320
WIRE 544 320 544 304
WIRE 544 320 320 320
WIRE 720 320 544 320
WIRE 912 320 912 288
WIRE 912 320 784 320
WIRE 1024 320 1024 288
WIRE 1024 320 912 320
WIRE 1120 320 1024 320
WIRE 1248 320 1248 176
WIRE 1248 320 1120 320
WIRE 1360 320 1360 192
WIRE 1360 320 1248 320
WIRE 1488 320 1488 160
WIRE 1488 320 1360 320
WIRE 1120 352 1120 320
WIRE 1248 464 1216 464
WIRE 1120 480 1088 480
WIRE 1248 496 1216 496
WIRE 1088 528 1088 480
WIRE 1088 528 1056 528
WIRE 656 544 592 544
WIRE 960 544 912 544
WIRE 1088 560 1056 560
WIRE 1248 592 1216 592
WIRE 1088 608 1088 560
WIRE 1120 608 1088 608
WIRE 1248 624 1216 624
WIRE 656 656 656 544
WIRE 704 656 656 656
WIRE 912 656 912 544
WIRE 912 656 864 656
WIRE 368 672 272 672
WIRE 640 688 592 688
WIRE 704 688 640 688
WIRE 912 688 864 688
WIRE 368 704 320 704
WIRE 1248 720 1216 720
WIRE 1120 736 1088 736
WIRE 1248 752 1216 752
WIRE 320 768 320 704
WIRE 320 768 272 768
WIRE 1088 784 1088 736
WIRE 1088 784 1056 784
WIRE 912 800 912 688
WIRE 960 800 912 800
WIRE 1088 816 1056 816
WIRE 1248 848 1216 848
WIRE 1088 864 1088 816
WIRE 1120 864 1088 864
WIRE 1248 880 1216 880
FLAG 256 80 g1
FLAG 256 288 g2
FLAG 352 112 sw1
FLAG 480 80 g3
FLAG 480 288 g4
FLAG 576 192 sw2
FLAG 1440 -16 out
FLAG 1536 144 vout
FLAG 1248 720 g1
FLAG 1248 752 sw1
FLAG 1248 848 g2
FLAG 1248 464 g3
FLAG 1248 496 sw2
FLAG 1248 592 g4
FLAG 272 672 vout
FLAG 640 688 ph
FLAG 912 544 clk1
FLAG 912 800 clk2
FLAG 64 320 hvgnd
FLAG 1248 624 hvgnd
FLAG 1248 880 hvgnd
FLAG 848 112 sw3
FLAG 992 192 sw4
FLAG 1120 352 0
SYMBOL voltage -16 48 R0
WINDOW 123 0 0 Left 0
WINDOW 39 0 0 Left 0
SYMATTR InstName V1
SYMATTR Value 400
SYMBOL polcap 112 128 R0
WINDOW 3 24 56 Left 2
SYMATTR Value 330µ
SYMATTR InstName C1
SYMATTR Description Capacitor
SYMATTR Type cap
SYMATTR SpiceLine Irms=1.5 Rser=0.1
SYMBOL ind2 704 208 M180
WINDOW 0 0 113 Left 2
WINDOW 3 -20 -6 Left 2
SYMATTR InstName Lp
SYMATTR Value 1m
SYMATTR SpiceLine Rser=1m
SYMBOL ind2 800 208 R180
WINDOW 0 9 113 Left 2
WINDOW 3 -40 -4 Left 2
SYMATTR InstName Ls
SYMATTR Value 2.5µ
SYMATTR SpiceLine Rser=1m
SYMBOL ind 1104 0 R270
WINDOW 0 32 56 VTop 2
WINDOW 3 5 56 VBottom 2
SYMATTR InstName L3
SYMATTR Value 10µ
SYMATTR SpiceLine Rser=1m
SYMBOL polcap 1232 112 R0
WINDOW 3 24 56 Left 2
SYMATTR Value 1000µ
SYMATTR InstName C2
SYMATTR Description Capacitor
SYMATTR Type cap
SYMATTR SpiceLine Rser=0.1
SYMBOL VMON 1488 144 R0
SYMATTR InstName X1
SYMBOL DEADTIME 1008 800 R0
WINDOW 39 0 74 Bottom 2
SYMATTR InstName X3
SYMBOL iGD 1168 736 R0
WINDOW 0 -3 -69 Top 2
SYMATTR InstName X4
SYMBOL iGD 1168 864 R0
WINDOW 0 -2 -68 Top 2
SYMATTR InstName X5
SYMBOL DEADTIME 1008 544 R0
WINDOW 39 6 75 Bottom 2
SYMATTR InstName X6
SYMBOL iGD 1168 480 R0
WINDOW 0 -1 -69 Top 2
SYMATTR InstName X7
SYMBOL iGD 1168 608 R0
WINDOW 0 -2 -68 Top 2
SYMATTR InstName X8
SYMBOL res 1344 96 R0
SYMATTR InstName R1
SYMATTR Value 1
SYMBOL TYPE2 480 688 R0
WINDOW 0 -81 -57 Center 2
WINDOW 39 7 61 Center 2
WINDOW 40 7 89 Center 2
SYMATTR InstName X11
SYMATTR SpiceLine g=1 fz1=2k fp1=10k
SYMATTR SpiceLine2 vh=180 vl=-180
SYMBOL CONST 240 768 R0
WINDOW 39 2 53 Bottom 2
SYMATTR SpiceLine K=12
SYMATTR InstName X12
SYMBOL PHASESHIFT2 784 672 R0
WINDOW 0 0 -71 Top 2
SYMATTR InstName X2
SYMBOL CONST 560 544 R0
WINDOW 39 0 53 Bottom 2
SYMATTR SpiceLine K=100k
SYMATTR InstName X9
SYMBOL iD 912 48 R180
SYMATTR InstName X16
SYMBOL iD 912 256 R180
SYMATTR InstName X17
SYMBOL iD 1024 48 R180
SYMATTR InstName X18
SYMBOL iD 1024 256 R180
SYMATTR InstName X19
SYMBOL iNMOS 320 48 R0
SYMATTR InstName X10
SYMBOL iNMOS 320 256 R0
SYMATTR InstName X13
SYMBOL iNMOS 544 48 R0
SYMATTR InstName X14
SYMBOL iNMOS 544 256 R0
SYMATTR InstName X15
SYMBOL cap 784 304 R90
WINDOW 0 0 32 VBottom 2
WINDOW 3 32 32 VTop 2
SYMATTR InstName C3
SYMATTR Value 10p
TEXT 680 56 Left 2 !K Lp Ls 0.998
TEXT 728 240 Left 2 ;20:1
TEXT 40 -104 Left 2 !.tran 0 2m 1.9m 10n
TEXT -16 -192 Left 6 ;Phase shift full bridge converter
TEXT 1368 -120 Left 2 ;2024-12-29
LINE Normal 747 204 747 92 1
LINE Normal 755 204 755 92 1
