Version 4
SHEET 1 1968 1000
WIRE 128 -16 -16 -16
WIRE 320 -16 128 -16
WIRE 544 -16 320 -16
WIRE 1024 -16 912 -16
WIRE 1120 -16 1024 -16
WIRE 1248 -16 1200 -16
WIRE 1360 -16 1248 -16
WIRE 1440 -16 1360 -16
WIRE 1488 -16 1440 -16
WIRE 320 0 320 -16
WIRE 544 0 544 -16
WIRE 912 16 912 -16
WIRE 1024 16 1024 -16
WIRE -16 64 -16 -16
WIRE 272 80 256 80
WIRE 496 80 480 80
WIRE 320 112 320 96
WIRE 352 112 320 112
WIRE 720 112 352 112
WIRE 848 112 784 112
WIRE 912 112 912 80
WIRE 912 112 848 112
WIRE 1248 112 1248 -16
WIRE 1360 112 1360 -16
WIRE 128 128 128 -16
WIRE 1488 128 1488 -16
WIRE 1536 144 1504 144
WIRE 544 192 544 96
WIRE 576 192 544 192
WIRE 720 192 576 192
WIRE 992 192 784 192
WIRE 1024 192 1024 80
WIRE 1024 192 992 192
WIRE 320 208 320 112
WIRE 544 208 544 192
WIRE 912 224 912 112
WIRE 1024 224 1024 192
WIRE 272 288 256 288
WIRE 496 288 480 288
WIRE -16 320 -16 144
WIRE 64 320 -16 320
WIRE 128 320 128 192
WIRE 128 320 64 320
WIRE 320 320 320 304
WIRE 320 320 128 320
WIRE 544 320 544 304
WIRE 544 320 320 320
WIRE 704 320 544 320
WIRE 912 320 912 288
WIRE 912 320 768 320
WIRE 1024 320 1024 288
WIRE 1024 320 912 320
WIRE 1120 320 1024 320
WIRE 1248 320 1248 176
WIRE 1248 320 1120 320
WIRE 1360 320 1360 192
WIRE 1360 320 1248 320
WIRE 1488 320 1488 160
WIRE 1488 320 1360 320
WIRE 1120 352 1120 320
WIRE 1264 480 1232 480
WIRE 1136 496 1104 496
WIRE 1264 512 1232 512
WIRE 1104 544 1104 496
WIRE 1104 544 1072 544
WIRE 944 560 912 560
WIRE 976 560 944 560
WIRE 1104 576 1072 576
WIRE 1264 608 1232 608
WIRE 1104 624 1104 576
WIRE 1136 624 1104 624
WIRE 1264 640 1232 640
WIRE 352 672 208 672
WIRE 912 672 912 560
WIRE 912 672 848 672
WIRE 624 688 576 688
WIRE 688 688 624 688
WIRE 352 704 304 704
WIRE 912 704 848 704
WIRE 304 768 304 704
WIRE 304 768 240 768
WIRE 1264 768 1232 768
WIRE 1136 784 1104 784
WIRE 1264 800 1232 800
WIRE 1104 832 1104 784
WIRE 1104 832 1072 832
WIRE 912 848 912 704
WIRE 944 848 912 848
WIRE 976 848 944 848
WIRE 1104 864 1072 864
WIRE 1264 896 1232 896
WIRE 1104 912 1104 864
WIRE 1136 912 1104 912
WIRE 1264 928 1232 928
FLAG 256 80 g1
FLAG 256 288 g2
FLAG 352 112 sw1
FLAG 480 80 g3
FLAG 480 288 g4
FLAG 576 192 sw2
FLAG 1440 -16 out
FLAG 1536 144 vout
FLAG 1264 768 g1
FLAG 1264 800 sw1
FLAG 1264 896 g2
FLAG 1264 480 g3
FLAG 1264 512 sw2
FLAG 1264 608 g4
FLAG 208 672 vout
FLAG 624 688 ph
FLAG 944 560 clk1
FLAG 944 848 clk2
FLAG 64 320 hvgnd
FLAG 1264 640 hvgnd
FLAG 1264 928 hvgnd
FLAG 848 112 sw3
FLAG 992 192 sw4
FLAG 1120 352 0
SYMBOL voltage -16 48 R0
WINDOW 123 0 0 Left 0
WINDOW 39 0 0 Left 0
SYMATTR InstName V1
SYMATTR Value 400
SYMBOL polcap 112 128 R0
WINDOW 3 24 56 Left 2
SYMATTR Value 330µ
SYMATTR InstName C1
SYMATTR Description Capacitor
SYMATTR Type cap
SYMATTR SpiceLine Irms=1.5 Rser=0.1
SYMBOL ind2 704 208 M180
WINDOW 0 0 113 Left 2
WINDOW 3 -20 -6 Left 2
SYMATTR InstName Lp
SYMATTR Value 1m
SYMATTR SpiceLine Rser=1m
SYMBOL ind2 800 208 R180
WINDOW 0 9 113 Left 2
WINDOW 3 -40 -4 Left 2
SYMATTR InstName Ls
SYMATTR Value 2.5µ
SYMATTR SpiceLine Rser=1m
SYMBOL ind 1104 0 R270
WINDOW 0 32 56 VTop 2
WINDOW 3 5 56 VBottom 2
SYMATTR InstName L3
SYMATTR Value 10µ
SYMATTR SpiceLine Rser=1m
SYMBOL polcap 1232 112 R0
WINDOW 3 24 56 Left 2
SYMATTR Value 1000µ
SYMATTR InstName C2
SYMATTR Description Capacitor
SYMATTR Type cap
SYMATTR SpiceLine Rser=0.1
SYMBOL VMON 1488 144 R0
SYMATTR InstName X1
SYMBOL DEADTIME 1024 848 R0
SYMATTR InstName X3
SYMBOL iGD 1184 784 R0
WINDOW 0 -2 -66 Top 2
SYMATTR InstName X4
SYMBOL iGD 1184 912 R0
WINDOW 0 0 -68 Top 2
SYMATTR InstName X5
SYMBOL DEADTIME 1024 560 R0
SYMATTR InstName X6
SYMBOL iGD 1184 496 R0
WINDOW 0 -5 -70 Top 2
SYMATTR InstName X7
SYMBOL iGD 1184 624 R0
WINDOW 0 -4 -68 Top 2
SYMATTR InstName X8
SYMBOL res 1344 96 R0
SYMATTR InstName R1
SYMATTR Value 1
SYMBOL TYPE2 464 688 R0
WINDOW 0 -81 -57 Center 2
WINDOW 39 7 61 Center 2
WINDOW 40 7 89 Center 2
SYMATTR InstName X11
SYMATTR SpiceLine g=1 fz1=2k fp1=10k
SYMATTR SpiceLine2 vh=180 vl=-180
SYMBOL CONST 208 768 R0
WINDOW 39 2 53 Bottom 2
SYMATTR SpiceLine K=12
SYMATTR InstName X12
SYMBOL PHASESHIFT 768 688 R0
WINDOW 0 1 -72 Top 2
WINDOW 39 -2 67 Top 2
SYMATTR InstName X2
SYMBOL iNMOS 320 48 R0
SYMATTR InstName X9
SYMBOL iNMOS 320 256 R0
SYMATTR InstName X10
SYMBOL iNMOS 544 256 R0
SYMATTR InstName X13
SYMBOL iNMOS 544 48 R0
SYMATTR InstName X14
SYMBOL iD 912 48 R180
SYMATTR InstName X15
SYMBOL iD 912 256 R180
SYMATTR InstName X16
SYMBOL iD 1024 48 R180
SYMATTR InstName X17
SYMBOL iD 1024 256 R180
SYMATTR InstName X18
SYMBOL cap 768 304 R90
WINDOW 0 0 32 VBottom 2
WINDOW 3 32 32 VTop 2
SYMATTR InstName C3
SYMATTR Value 10p
TEXT 680 56 Left 2 !K Lp Ls 0.998
TEXT 728 240 Left 2 ;20:1
TEXT 24 -104 Left 2 !.tran 0 5m 0 10n
TEXT -16 -192 Left 6 ;Phase shift full bridge converter w/ZVS
TEXT 1384 -120 Left 2 ;2024-12-29
LINE Normal 747 204 747 92 1
LINE Normal 755 204 755 92 1
