Version 4
SHEET 1 1716 1364
WIRE -112 208 -144 208
WIRE 0 208 -112 208
WIRE 112 208 0 208
WIRE 304 208 192 208
WIRE 336 208 304 208
WIRE 400 208 336 208
WIRE 528 208 464 208
WIRE 560 208 528 208
WIRE 672 208 560 208
WIRE 864 208 736 208
WIRE 944 208 864 208
WIRE 960 208 944 208
WIRE 304 240 304 208
WIRE -144 272 -144 208
WIRE 0 272 0 208
WIRE 560 272 560 208
WIRE 864 272 864 208
WIRE 960 272 960 208
WIRE 256 320 224 320
WIRE 304 352 304 336
WIRE 352 384 336 384
WIRE -144 432 -144 352
WIRE 0 432 0 336
WIRE 304 432 304 416
WIRE 560 432 560 352
WIRE 864 432 864 352
WIRE 960 432 960 336
WIRE 928 656 896 656
WIRE 336 672 304 672
WIRE 464 672 432 672
WIRE 576 672 528 672
WIRE 592 672 576 672
WIRE 736 672 672 672
WIRE 800 672 736 672
WIRE 928 688 896 688
WIRE 576 704 560 704
WIRE 592 704 576 704
WIRE 928 720 928 688
WIRE -112 800 -144 800
WIRE -32 800 -48 800
WIRE 0 800 -32 800
WIRE 304 816 224 816
WIRE 432 816 304 816
WIRE -48 832 -80 832
WIRE 0 832 -48 832
WIRE 560 832 560 704
WIRE 560 832 512 832
WIRE 320 848 288 848
WIRE 400 848 384 848
WIRE 432 848 400 848
WIRE -80 880 -80 832
WIRE -80 880 -96 880
WIRE 240 960 208 960
WIRE 352 960 352 880
WIRE 352 960 304 960
WIRE -32 1152 -32 800
WIRE 0 1152 -32 1152
WIRE 112 1152 96 1152
WIRE 128 1152 112 1152
WIRE 240 1152 224 1152
WIRE -48 1216 -48 832
WIRE 0 1216 -48 1216
WIRE 112 1216 96 1216
WIRE 128 1216 112 1216
WIRE 240 1216 224 1216
WIRE 112 1248 112 1216
WIRE 240 1248 240 1216
FLAG 960 432 0
FLAG 944 208 out
FLAG 336 208 sw1
FLAG 304 816 vc
FLAG 864 432 0
FLAG 736 672 pwm
FLAG 352 384 IL
FLAG 288 848 IL
FLAG 576 672 s
FLAG 576 704 r
FLAG 208 960 pwm
FLAG 352 960 slope
FLAG -144 800 out
FLAG -112 208 in
FLAG 112 1152 vc
FLAG 112 1248 0
FLAG 240 1248 0
FLAG 240 1152 out
FLAG 304 432 0
FLAG 224 320 g
FLAG 560 432 0
FLAG 528 208 sw2
FLAG 928 656 g
FLAG 928 720 0
FLAG -144 432 0
FLAG 0 432 0
FLAG 400 848 ILs
SYMBOL voltage -144 256 M0
WINDOW 0 51 45 Bottom 2
WINDOW 3 75 55 Top 2
WINDOW 123 0 0 Left 0
WINDOW 39 0 0 Left 0
SYMATTR InstName V1
SYMATTR Value {Vin}
SYMBOL ind 96 224 R270
WINDOW 0 32 56 VTop 2
WINDOW 3 5 56 VBottom 2
SYMATTR InstName L1
SYMATTR Value {Lin}
SYMATTR SpiceLine Rser=10m
SYMBOL cap 976 272 M0
SYMATTR InstName C1
SYMATTR Value 22µ
SYMATTR SpiceLine Rser=1m
SYMBOL iGD 848 672 R0
SYMATTR InstName X2
SYMBOL res 880 256 M0
SYMATTR InstName R1
SYMATTR Value 10
SYMBOL IMON 304 384 M90
WINDOW 0 -27 -40 VRight 2
SYMATTR InstName X4
SYMBOL VCO 384 672 R0
SYMATTR InstName X6
SYMBOL POSEDGE 496 672 R0
WINDOW 39 5 51 Bottom 2
SYMATTR SpiceLine TD=10n
SYMATTR InstName X7
SYMBOL CONST 272 672 R0
WINDOW 39 0 53 Bottom 2
SYMATTR SpiceLine K=500k
SYMATTR InstName X8
SYMBOL CMP 480 832 R0
SYMATTR InstName X9
SYMBOL SRFF 624 688 R0
SYMATTR InstName X11
SYMBOL SLOPE 272 960 R0
WINDOW 39 80 59 Bottom 2
SYMATTR SpiceLine Se={(Vin/Lin+Vin/Lout)*0.5}
SYMATTR InstName X12
SYMBOL TYPE2 112 816 R0
WINDOW 0 0 -75 Center 2
WINDOW 39 2 58 Center 2
WINDOW 40 2 86 Center 2
SYMATTR InstName X13
SYMATTR SpiceLine g=3 fz1=1k fp1=100k
SYMATTR SpiceLine2 vh=10 vl=-10
SYMBOL CONST -128 880 R0
WINDOW 39 0 53 Bottom 2
SYMATTR SpiceLine K={Vout}
SYMATTR InstName X14
SYMBOL fra -48 800 R270
WINDOW 0 16 -32 VTop 2
SYMATTR InstName @1
SYMATTR SpiceLine delay=1m fstart=1k fend=500k oct=2 nmax=2 pp0=20m pp1=20m f0=1k f1=100k tavgmin=100µ tsettle=1m
SYMBOL fraprobe 48 1232 R0
SYMATTR InstName &1comp
SYMBOL fraprobe 176 1232 R0
SYMATTR InstName &1plant
SYMBOL SUM 352 848 R0
WINDOW 0 38 37 Bottom 2
SYMATTR InstName X5
SYMBOL iNMOS 304 288 R0
SYMATTR InstName X1
SYMBOL cap 464 192 R90
WINDOW 0 0 32 VBottom 2
WINDOW 3 32 32 VTop 2
SYMATTR InstName C2
SYMATTR Value 1µ
SYMATTR SpiceLine Rser=1m
SYMBOL ind 544 368 M180
WINDOW 0 46 78 Left 2
WINDOW 3 48 34 Left 2
SYMATTR InstName L2
SYMATTR Value {Lout}
SYMATTR SpiceLine Rser=10m
SYMBOL PowerSim\\iD 704 208 R270
WINDOW 0 16 0 VTop 2
SYMATTR InstName X3
SYMBOL cap -16 272 R0
SYMATTR InstName C3
SYMATTR Value 22µ
SYMATTR SpiceLine Rser=1m
TEXT -152 32 Left 2 !.tran 0 1m 0.98m
TEXT -224 -96 Left 6 ;Peak Current Mode Control SEPIC
TEXT 224 24 Left 2 !;.save V(out) I(L1) V(sw) V(vc)
TEXT -152 64 Left 2 ;.fra
TEXT 960 -24 Left 2 ;2025-2-11
TEXT 680 16 Left 2 !.param Vin=3\n.param Vout=5\n.param Lin=4.7u\n.param Lout=33u
