Version 4
SHEET 1 880 680
WIRE 592 112 -80 112
WIRE -80 144 -80 112
WIRE -112 176 -160 176
WIRE -32 176 -48 176
WIRE 64 176 32 176
WIRE 96 176 64 176
WIRE 400 192 320 192
WIRE 480 192 400 192
WIRE 592 192 592 112
WIRE 592 192 544 192
WIRE -160 208 -160 176
WIRE -160 208 -192 208
WIRE 64 208 -160 208
WIRE 96 208 64 208
WIRE 512 304 512 224
WIRE 544 304 512 304
WIRE -48 336 -64 336
WIRE 64 336 48 336
WIRE -48 400 -64 400
WIRE 64 400 48 400
FLAG 64 176 a
FLAG 64 208 b
FLAG 400 192 out
FLAG -64 400 a
FLAG -64 336 b
FLAG 64 400 0
FLAG 64 336 out
SYMBOL PowerSim\\CONST -224 208 R0
WINDOW 39 -1 53 Bottom 2
SYMATTR InstName X2
SYMBOL fra 32 176 R270
WINDOW 0 16 -32 VTop 2
SYMATTR InstName @1
SYMATTR SpiceLine delay=0.5m fstart=10 fend=500k oct=2 nmax=1 pp0=10m pp1=5m f0=1k f1=500k
SYMBOL fraprobe 0 416 R0
SYMATTR InstName &1
SYMBOL PowerSim\\TYPE3 208 192 R0
WINDOW 39 6 72 Bottom 2
WINDOW 40 9 102 Bottom 2
WINDOW 3 6 129 Bottom 2
WINDOW 123 5 154 Bottom 2
SYMATTR SpiceLine2 fp1=100k fp2=200k
SYMATTR InstName X1
SYMBOL PowerSim\\SUM -80 176 M180
WINDOW 0 -52 38 Bottom 2
SYMATTR InstName X3
SYMBOL PowerSim\\CONST 576 304 M0
WINDOW 39 -1 53 Bottom 2
SYMATTR SpiceLine K=0.2
SYMATTR InstName X4
SYMBOL PowerSim\\SUB 512 192 R0
SYMATTR InstName X5
TEXT 96 136 Left 2 ;type3
TEXT -120 472 Left 2 !.fra dtmax=1u
TEXT -272 8 Left 4 ;Type3 FRA
TEXT 408 64 Left 2 ;2024-12-30
