Version 4
SHEET 1 3096 1312
WIRE 1008 176 768 176
WIRE 1056 176 1008 176
WIRE 1888 176 1360 176
WIRE 1968 176 1888 176
WIRE 1984 176 1968 176
WIRE 768 208 768 176
WIRE 112 240 32 240
WIRE 256 240 208 240
WIRE 304 240 256 240
WIRE 416 240 400 240
WIRE 1056 256 1056 176
WIRE 1360 256 1360 176
WIRE 112 304 64 304
WIRE 256 304 208 304
WIRE 304 304 256 304
WIRE 432 304 400 304
WIRE 768 320 768 288
WIRE 1888 320 1888 176
WIRE 1984 320 1984 176
WIRE 256 336 256 304
WIRE 432 336 432 304
WIRE 1008 336 976 336
WIRE 1440 336 1408 336
WIRE -80 352 -96 352
WIRE 32 352 32 240
WIRE 32 352 -16 352
WIRE 880 352 848 352
WIRE 1568 352 1536 352
WIRE 1056 368 1056 352
WIRE 1056 368 976 368
WIRE 1360 368 1360 352
WIRE 1440 368 1360 368
WIRE 1056 400 1056 368
WIRE 1104 400 1056 400
WIRE 1168 400 1104 400
WIRE 1312 400 1248 400
WIRE 1360 400 1360 368
WIRE 1360 400 1312 400
WIRE 32 432 32 352
WIRE 96 432 32 432
WIRE 848 432 848 352
WIRE 848 432 800 432
WIRE 1056 432 1056 400
WIRE 1360 432 1360 400
WIRE 1568 432 1568 352
WIRE 1616 432 1568 432
WIRE 368 448 320 448
WIRE 416 448 368 448
WIRE 480 448 416 448
WIRE 640 448 576 448
WIRE 704 448 640 448
WIRE 1776 448 1712 448
WIRE 32 464 0 464
WIRE 64 464 64 304
WIRE 64 464 32 464
WIRE 96 464 64 464
WIRE 848 464 800 464
WIRE 1616 464 1568 464
WIRE 1008 512 976 512
WIRE 1440 512 1408 512
WIRE 848 528 848 464
WIRE 880 528 848 528
WIRE 1568 528 1568 464
WIRE 1568 528 1536 528
WIRE 1056 544 1056 528
WIRE 1056 544 976 544
WIRE 1360 544 1360 528
WIRE 1440 544 1360 544
WIRE 1888 576 1888 384
WIRE 1984 576 1984 400
WIRE 1056 592 1056 544
WIRE 1360 592 1360 544
WIRE 416 688 416 448
WIRE 448 688 416 688
WIRE 592 688 512 688
WIRE 832 688 592 688
WIRE 1056 688 928 688
WIRE 1296 688 1056 688
WIRE 1776 688 1776 448
WIRE 1776 688 1360 688
WIRE 480 752 480 720
WIRE 480 752 416 752
FLAG 1056 592 0
FLAG 768 320 0
FLAG 1888 576 0
FLAG 1968 176 out
FLAG 1008 176 in
FLAG 1104 400 sw1
FLAG 368 448 duty1
FLAG 1984 576 0
FLAG -96 352 out
FLAG 432 336 0
FLAG 416 240 out
FLAG 256 336 0
FLAG 1360 592 0
FLAG 592 688 duty2
FLAG 32 464 ref
FLAG 256 240 duty2
FLAG 1312 400 sw2
FLAG 640 448 pwm1
FLAG 1056 688 pwm2
SYMBOL voltage 768 192 R0
WINDOW 0 -53 6 Top 2
WINDOW 3 -55 82 Bottom 2
WINDOW 123 0 0 Left 0
WINDOW 39 0 0 Left 0
SYMATTR InstName V1
SYMATTR Value 3.6
SYMBOL ind 1152 416 R270
WINDOW 0 32 56 VTop 2
WINDOW 3 5 56 VBottom 2
SYMATTR InstName L1
SYMATTR Value 10µ
SYMATTR SpiceLine Rser=10m
SYMBOL cap 1872 320 R0
SYMATTR InstName C1
SYMATTR Value 22µ
SYMATTR SpiceLine Rser=1m
SYMBOL iGD 928 352 R0
SYMATTR InstName X2
SYMBOL iGD 928 528 R0
SYMATTR InstName X3
SYMBOL DEADTIME 752 448 R0
WINDOW 39 0 73 Bottom 2
SYMATTR InstName X1
SYMBOL res 1968 304 R0
SYMATTR InstName R1
SYMATTR Value 3.3
SYMBOL PWM 528 448 R0
WINDOW 39 -56 41 Left 2
SYMATTR SpiceLine freq=1Meg
SYMATTR InstName X4
SYMBOL fra -16 352 R270
WINDOW 0 16 -32 VTop 2
SYMATTR InstName @1
SYMATTR SpiceLine delay=3m fstart=100 fend=100k oct=2 nmax=2 pp0=20m pp1=20m f0=1k f1=100k
SYMBOL fraprobe 352 320 R0
SYMATTR InstName &1plant
SYMBOL fraprobe 160 320 R0
SYMATTR InstName &1comp
SYMBOL CONST 384 752 R0
WINDOW 39 -2 52 Bottom 2
SYMATTR SpiceLine K=0.9
SYMATTR InstName X11
SYMBOL Digital\\inv 1296 624 R0
WINDOW 3 8 60 Left 2
SYMATTR InstName A1
SYMBOL TYPE2 208 448 R0
WINDOW 39 13 49 Top 2
WINDOW 40 -60 93 Left 2
SYMATTR SpiceLine g=0.02 fz1=10k fp1=100k
SYMATTR SpiceLine2 Vh=1.6 Vl=0
SYMATTR InstName X5
SYMBOL PWM 880 688 R0
WINDOW 39 -3 58 Bottom 2
SYMATTR SpiceLine freq=1Meg
SYMATTR InstName X6
SYMBOL DEADTIME 1664 448 M0
WINDOW 39 -2 72 Bottom 2
SYMATTR InstName X9
SYMBOL iGD 1488 352 M0
SYMATTR InstName X7
SYMBOL iGD 1488 528 M0
SYMATTR InstName X8
SYMBOL SUB 480 688 R0
SYMATTR InstName X10
SYMBOL iNMOS 1056 304 R0
SYMATTR InstName X12
SYMBOL iNMOS 1056 480 R0
SYMATTR InstName X13
SYMBOL iNMOS 1360 304 M0
SYMATTR InstName X14
SYMBOL iNMOS 1360 480 M0
SYMATTR InstName X15
SYMBOL CONST -32 464 R0
WINDOW 39 -2 52 Bottom 2
SYMATTR SpiceLine K=3.3
SYMATTR InstName X16
TEXT 0 0 Left 2 ;.tran 0 5m 0 10n
TEXT 344 8 Left 2 !.save V(out) V(sw1) V(sw2) I(L1) V(duty1) V(duty2) V(ref)
TEXT 0 32 Left 2 !.fra
TEXT -48 -104 Left 5 ;Volate Mode Buck-Boost Converter
TEXT 1824 -88 Left 2 ;2024-12-29
TEXT 1784 144 Left 2 !.ic V(out)=3.3
TEXT 1144 472 Left 2 !.ic I(L1)=0
