Version 4
SHEET 1 2272 1388
WIRE -320 128 -320 112
WIRE -128 128 -128 112
WIRE -352 144 -368 144
WIRE -272 144 -288 144
WIRE -16 144 -16 112
WIRE 336 160 336 112
WIRE -176 208 -208 208
WIRE -128 240 -128 224
WIRE -16 240 -16 208
WIRE 336 240 336 192
WIRE -208 752 -208 720
WIRE -368 768 -384 768
WIRE -288 768 -304 768
WIRE -176 768 -192 768
WIRE 160 784 144 784
WIRE 240 784 224 784
WIRE 368 784 352 784
WIRE 448 784 432 784
WIRE 528 784 496 784
WIRE 608 784 592 784
WIRE -336 816 -336 800
WIRE -208 816 -208 784
WIRE 400 832 400 816
WIRE 560 832 560 816
WIRE 160 912 128 912
WIRE 240 912 224 912
WIRE 368 912 352 912
WIRE 448 912 432 912
WIRE 400 960 400 944
WIRE -192 992 -208 992
WIRE -112 992 -128 992
WIRE 32 992 16 992
WIRE 160 1024 128 1024
WIRE 240 1024 224 1024
WIRE 448 1024 432 1024
WIRE 560 1024 544 1024
WIRE 640 1024 624 1024
WIRE -368 1088 -384 1088
WIRE -272 1088 -288 1088
WIRE -192 1088 -208 1088
WIRE -96 1088 -112 1088
WIRE -368 1120 -384 1120
WIRE -272 1120 -288 1120
WIRE -192 1120 -240 1120
WIRE -96 1120 -112 1120
WIRE 160 1120 128 1120
WIRE 240 1120 224 1120
SYMBOL CONST 400 1024 R0
WINDOW 0 0 -24 Invisible 2
WINDOW 39 3 59 Bottom 2
SYMATTR InstName X2
SYMBOL IMON -336 768 R0
WINDOW 0 -16 -18 Invisible 2
SYMATTR InstName X5
SYMBOL iGD -160 512 R0
WINDOW 0 0 -40 Invisible 2
SYMATTR InstName X7
SYMBOL GAIN 192 784 R0
WINDOW 0 0 -32 Invisible 2
SYMATTR InstName X15
SYMBOL VAC3ph 192 176 R0
WINDOW 0 -10 -72 Invisible 2
SYMATTR InstName X17
SYMBOL ZCD 192 912 R0
WINDOW 0 8 -24 Invisible 2
SYMATTR InstName X22
SYMBOL POSEDGE -160 992 R0
WINDOW 0 8 -24 Invisible 2
SYMATTR InstName X24
SYMBOL SRFF -336 1104 R0
WINDOW 0 8 -40 Invisible 2
SYMATTR InstName X25
SYMBOL slope 592 1024 R0
WINDOW 0 0 -24 Invisible 2
SYMATTR InstName X26
SYMBOL PHASESHIFT3 1488 176 R0
WINDOW 0 0 -72 Invisible 2
SYMATTR InstName X27
SYMBOL TIMER -16 992 R0
WINDOW 39 6 55 Bottom 2
WINDOW 0 8 -24 Invisible 2
SYMATTR InstName X32
SYMBOL CLARKE 800 704 R0
WINDOW 0 0 -56 Invisible 2
SYMATTR InstName X34
SYMBOL EXOR -336 992 R0
WINDOW 0 0 -32 Invisible 2
SYMATTR InstName X37
SYMBOL ABS 192 1024 R0
WINDOW 0 0 -24 Invisible 2
SYMATTR InstName X38
SYMBOL VCO 1024 208 R0
WINDOW 0 0 -24 Invisible 2
SYMATTR InstName X3
SYMBOL DEADTIME -320 512 R0
WINDOW 39 1 72 Bottom 2
WINDOW 0 0 -40 Invisible 2
SYMATTR InstName X8
SYMBOL PHASESHIFT 1232 144 R0
WINDOW 0 0 -40 Invisible 2
SYMATTR InstName X14
SYMBOL PHASESHIFT2 1232 304 R0
WINDOW 0 0 -40 Invisible 2
SYMATTR InstName X20
SYMBOL TYPE2 704 128 R0
WINDOW 0 0 -40 Invisible 2
SYMATTR InstName X12
SYMBOL TYPE3 704 272 R0
WINDOW 0 0 -40 Invisible 2
SYMATTR InstName X13
SYMBOL VAC1ph 336 176 R0
WINDOW 0 -21 1 Invisible 2
SYMATTR InstName X16
SYMBOL LIMIT 448 496 R0
WINDOW 0 0 -40 Invisible 2
SYMATTR InstName X18
SYMBOL VMON -208 768 R0
WINDOW 0 -20 0 Invisible 2
SYMATTR InstName X6
SYMBOL CMP 416 640 R0
WINDOW 0 -8 -32 Invisible 2
SYMATTR InstName X23
SYMBOL MIN 176 640 R0
WINDOW 0 0 -32 Invisible 2
SYMATTR InstName X21
SYMBOL GD 0 512 R0
WINDOW 0 0 -40 Invisible 2
SYMATTR InstName X28
SYMATTR SpiceLine2 ron=5 roff=5
SYMBOL SUM 400 784 R0
WINDOW 0 0 -23 Invisible 2
SYMATTR InstName X9
SYMBOL SUB 400 912 R0
WINDOW 0 0 -23 Invisible 2
SYMATTR InstName X10
SYMBOL PWM 1024 128 R0
WINDOW 0 0 -24 Invisible 2
SYMATTR InstName X4
SYMBOL MUL 560 784 R0
WINDOW 0 0 -23 Invisible 2
SYMATTR InstName X39
SYMBOL CLARKEinv 1024 704 R0
WINDOW 0 0 -56 Invisible 2
SYMATTR InstName X1
SYMBOL iD -16 176 R0
WINDOW 0 -23 -1 Invisible 2
SYMATTR InstName X40
SYMBOL MUX 192 512 R0
WINDOW 0 0 -48 Invisible 2
SYMATTR InstName X11
SYMBOL PowerSim\\CLARKE_PARK 800 880 R0
WINDOW 0 0 -72 Invisible 2
SYMATTR InstName X36
SYMBOL PowerSim\\CLARKE_PARKinv 1024 880 R0
WINDOW 0 0 -72 Invisible 2
SYMATTR InstName X41
SYMBOL PowerSim\\PARK 800 528 R0
WINDOW 0 0 -72 Invisible 2
SYMATTR InstName X29
SYMBOL PowerSim\\PARKinv 1024 528 R0
WINDOW 0 0 -72 Invisible 2
SYMATTR InstName X30
SYMBOL PowerSim\\LINEVOLT 1504 864 R0
WINDOW 0 8 -56 Invisible 2
SYMATTR InstName X42
SYMBOL PowerSim\\ANGLE 1248 496 R0
WINDOW 0 0 -40 Invisible 2
SYMATTR InstName X43
SYMBOL PowerSim\\CONTACTOR -320 128 R0
WINDOW 0 0 32 Invisible 2
SYMATTR InstName X19
SYMBOL PowerSim\\iNMOS -128 176 R0
WINDOW 0 -48 -32 Invisible 2
SYMATTR InstName X31
SYMBOL PowerSim\\PQ_POWER 1264 880 R0
WINDOW 0 0 -72 Invisible 2
SYMATTR InstName X33
SYMBOL PowerSim\\DFF -160 1104 R0
WINDOW 0 8 -40 Invisible 2
SYMATTR InstName X35
SYMBOL PowerSim\\INVERSE 192 1120 R0
SYMATTR InstName X44
SYMBOL PowerSim\\SV_PWM 816 1072 R0
WINDOW 0 0 -64 Invisible 2
SYMATTR InstName X45
SYMBOL PowerSim\\PFD 1040 304 R0
WINDOW 0 0 -40 Invisible 2
SYMATTR InstName X46
TEXT 576 8 Left 4 ;Compensator
TEXT 736 400 Left 4 ;Coordinate Functions
TEXT 952 8 Left 4 ;Modulator
TEXT 152 8 Left 4 ;AC Power
TEXT -400 656 Left 4 ;Monitor
TEXT -392 0 Left 4 ;Switching Components
TEXT -368 704 Left 2 ;IMON
TEXT -240 704 Left 2 ;VMON
TEXT -384 88 Left 2 ;CONTACTOR
TEXT -400 888 Left 4 ;Digital Components
TEXT -184 88 Left 2 ;iNMOS
TEXT -24 88 Left 2 ;iD
TEXT -360 944 Left 2 ;XOR
TEXT 136 400 Left 4 ;Arithmetic Components
TEXT 664 72 Left 2 ;TYPE2
TEXT 656 216 Left 2 ;TYPE3
TEXT -376 456 Left 2 ;DEADTIME
TEXT -176 456 Left 2 ;iGD
TEXT -16 456 Left 2 ;GD
TEXT -200 952 Left 2 ;POSEDGE
TEXT -48 952 Left 2 ;TIMER
TEXT -360 1048 Left 2 ;SRFF
TEXT 360 984 Left 2 ;CONST
TEXT 536 744 Left 2 ;MUL
TEXT 376 744 Left 2 ;SUM
TEXT 376 872 Left 2 ;SUB
TEXT 160 736 Left 2 ;GAIN
TEXT 384 592 Left 2 ;CMP
TEXT 408 440 Left 2 ;LIMIT
TEXT 160 448 Left 2 ;MUX
TEXT 152 592 Left 2 ;MIN
TEXT 168 872 Left 2 ;ZCD
TEXT 168 984 Left 2 ;ABS
TEXT 560 984 Left 2 ;SLOPE
TEXT 992 88 Left 2 ;PWM
TEXT 1160 88 Left 2 ;PHASESHIFT
TEXT 1000 168 Left 2 ;VCO
TEXT 1152 248 Left 2 ;PHASESHIFT2
TEXT 1400 88 Left 2 ;PHASESHIFT3
TEXT 152 88 Left 2 ;AC3PH
TEXT 304 88 Left 2 ;AC1PH
TEXT 712 792 Left 2 ;CLARKE_PARK
TEXT 944 792 Left 2 ;CLARKE_PARKinv
TEXT 752 632 Left 2 ;CLARKE
TEXT 960 632 Left 2 ;CLARKEinv
TEXT 1440 792 Left 2 ;LINEVOLT
TEXT -400 400 Left 4 ;Gate Driver
TEXT 1216 440 Left 2 ;ANGLE
TEXT 760 440 Left 2 ;PARK
TEXT 976 440 Left 2 ;PARKinv
TEXT 1192 784 Left 2 ;PQ_POWER
TEXT -184 1048 Left 2 ;SRFF
TEXT 752 992 Left 2 ;SV_PWM
TEXT 1016 248 Left 2 ;PFD
LINE Normal 1664 368 -416 368 2
LINE Normal 96 624 -416 624 2
LINE Normal 96 848 -416 848 2
LINE Normal 96 1184 96 -32 2
LINE Normal 512 368 512 -32 2
LINE Normal 928 368 928 -32 2
LINE Normal 704 1184 704 368 2
RECTANGLE Normal 1664 1184 -416 -32 2
