Version 4
SHEET 1 2272 1388
WIRE -320 128 -320 112
WIRE -128 128 -128 112
WIRE -352 144 -368 144
WIRE -272 144 -288 144
WIRE -16 144 -16 112
WIRE 336 160 336 112
WIRE -176 208 -208 208
WIRE -128 240 -128 224
WIRE -16 240 -16 208
WIRE 336 240 336 192
WIRE -208 848 -208 816
WIRE -368 864 -384 864
WIRE -288 864 -304 864
WIRE -176 864 -192 864
WIRE -336 912 -336 896
WIRE -208 912 -208 880
WIRE 384 976 368 976
WIRE 464 976 448 976
WIRE 592 976 576 976
WIRE 672 976 656 976
WIRE 752 976 720 976
WIRE 832 976 816 976
WIRE 624 1024 624 1008
WIRE 784 1024 784 1008
WIRE -192 1088 -208 1088
WIRE -112 1088 -128 1088
WIRE 416 1104 384 1104
WIRE 496 1104 480 1104
WIRE 592 1104 576 1104
WIRE 672 1104 656 1104
WIRE 624 1152 624 1136
WIRE -368 1184 -384 1184
WIRE -272 1184 -288 1184
WIRE -112 1184 -128 1184
WIRE -368 1216 -384 1216
WIRE -272 1216 -288 1216
WIRE 416 1216 384 1216
WIRE 496 1216 480 1216
WIRE 672 1216 656 1216
WIRE 784 1216 768 1216
WIRE 864 1216 848 1216
SYMBOL CONST 624 1216 R0
WINDOW 0 0 -24 Invisible 2
WINDOW 39 3 59 Bottom 2
SYMATTR InstName X2
SYMBOL IMON -336 864 R0
WINDOW 0 -16 -18 Invisible 2
SYMATTR InstName X5
SYMBOL iGD -144 608 R0
WINDOW 0 0 -40 Invisible 2
SYMATTR InstName X7
SYMBOL GAIN 416 976 R0
WINDOW 0 0 -32 Invisible 2
SYMATTR InstName X15
SYMBOL VAC3ph 192 176 R0
WINDOW 0 -10 -72 Invisible 2
WINDOW 39 -61 86 Left 2
WINDOW 40 -56 112 Left 2
SYMATTR InstName X17
SYMBOL ZCD 448 1104 R0
WINDOW 0 8 -24 Invisible 2
SYMATTR InstName X22
SYMBOL POSEDGE -160 1088 R0
WINDOW 0 8 -24 Invisible 2
SYMATTR InstName X24
SYMBOL SRFF -336 1200 R0
WINDOW 0 8 -40 Invisible 2
SYMATTR InstName X25
SYMBOL slope 816 1216 R0
WINDOW 0 0 -24 Invisible 2
SYMATTR InstName X26
SYMBOL PHASESHIFT3 1488 176 R0
WINDOW 0 0 -72 Invisible 2
SYMATTR InstName X27
SYMBOL TIMER -160 1184 R0
WINDOW 39 6 55 Bottom 2
WINDOW 0 8 -24 Invisible 2
SYMATTR InstName X32
SYMBOL CLARKE 1328 848 R0
WINDOW 0 0 -56 Invisible 2
SYMATTR InstName X34
SYMBOL EXOR -336 1088 R0
WINDOW 0 0 -32 Invisible 2
SYMATTR InstName X37
SYMBOL ABS 448 1216 R0
WINDOW 0 0 -24 Invisible 2
SYMATTR InstName X38
SYMBOL VCO 1040 288 R0
WINDOW 0 0 -24 Invisible 2
SYMATTR InstName X3
SYMBOL DEADTIME -320 608 R0
WINDOW 39 1 72 Bottom 2
WINDOW 0 0 -40 Invisible 2
SYMATTR InstName X8
SYMBOL PHASESHIFT 1232 144 R0
WINDOW 0 0 -40 Invisible 2
WINDOW 39 4 73 Bottom 2
SYMATTR InstName X14
SYMBOL PHASESHIFT2 1232 304 R0
WINDOW 0 0 -40 Invisible 2
SYMATTR InstName X20
SYMBOL TYPE2 704 128 R0
WINDOW 0 0 -40 Invisible 2
WINDOW 39 -124 62 Left 2
WINDOW 40 -53 89 Left 2
SYMATTR InstName X12
SYMBOL TYPE3 704 320 R0
WINDOW 0 0 -40 Invisible 2
WINDOW 39 -96 83 Left 2
WINDOW 40 -95 60 Left 2
WINDOW 3 -94 108 Left 2
SYMATTR InstName X13
SYMBOL VAC1ph 336 176 R0
WINDOW 0 -21 1 Invisible 2
WINDOW 39 25 -18 Left 2
WINDOW 40 27 10 Left 2
SYMATTR InstName X16
SYMBOL LIMIT 672 688 R0
WINDOW 0 0 -40 Invisible 2
SYMATTR InstName X18
SYMBOL VMON -208 864 R0
WINDOW 0 -20 0 Invisible 2
SYMATTR InstName X6
SYMBOL CMP 640 832 R0
WINDOW 0 -8 -32 Invisible 2
SYMATTR InstName X23
SYMBOL MIN 400 832 R0
WINDOW 0 0 -32 Invisible 2
SYMATTR InstName X21
SYMBOL GD 32 608 R0
WINDOW 0 0 -40 Invisible 2
SYMATTR InstName X28
SYMATTR SpiceLine2 ron=5 roff=5
SYMBOL SUM 624 976 R0
WINDOW 0 0 -23 Invisible 2
SYMATTR InstName X9
SYMBOL SUB 624 1104 R0
WINDOW 0 0 -23 Invisible 2
SYMATTR InstName X10
SYMBOL PWM 1024 128 R0
WINDOW 0 0 -24 Invisible 2
WINDOW 39 -56 43 Left 2
SYMATTR InstName X4
SYMBOL MUL 784 976 R0
WINDOW 0 0 -23 Invisible 2
SYMATTR InstName X39
SYMBOL CLARKEinv 1552 848 R0
WINDOW 0 0 -56 Invisible 2
SYMATTR InstName X1
SYMBOL iD -16 176 R0
WINDOW 0 -23 -1 Invisible 2
SYMATTR InstName X40
SYMBOL MUX 416 704 R0
WINDOW 0 0 -48 Invisible 2
SYMATTR InstName X11
SYMBOL PowerSim\\CLARKE_PARK 1328 1024 R0
WINDOW 0 0 -72 Invisible 2
SYMATTR InstName X36
SYMBOL PowerSim\\CLARKE_PARKinv 1552 1024 R0
WINDOW 0 0 -72 Invisible 2
SYMATTR InstName X41
SYMBOL PowerSim\\PARK 1328 672 R0
WINDOW 0 0 -72 Invisible 2
SYMATTR InstName X29
SYMBOL PowerSim\\PARKinv 1552 672 R0
WINDOW 0 0 -72 Invisible 2
SYMATTR InstName X30
SYMBOL PowerSim\\LINEVOLT 1328 1200 R0
WINDOW 0 8 -56 Invisible 2
SYMATTR InstName X42
SYMBOL PowerSim\\ANGLE 1552 1200 R0
WINDOW 0 0 -40 Invisible 2
SYMATTR InstName X43
SYMBOL PowerSim\\CONTACTOR -320 128 R0
WINDOW 0 0 32 Invisible 2
SYMATTR InstName X19
SYMBOL PowerSim\\iNMOS -128 176 R0
WINDOW 0 -48 -32 Invisible 2
SYMATTR InstName X31
SYMBOL PowerSim\\PQ_POWER 1120 1216 R0
WINDOW 0 0 -72 Invisible 2
SYMATTR InstName X33
TEXT 576 8 Left 4 ;Compensator
TEXT 1240 520 Left 4 ;Coordinate Functions
TEXT 952 8 Left 4 ;Modulator
TEXT 152 8 Left 4 ;AC Power
TEXT -400 752 Left 4 ;Monitor
TEXT -392 0 Left 4 ;Switching Components
TEXT -368 800 Left 2 ;IMON
TEXT -240 800 Left 2 ;VMON
TEXT -384 88 Left 2 ;CONTACTOR
TEXT -400 984 Left 4 ;Digital Components
TEXT -184 88 Left 2 ;iNMOS
TEXT -24 88 Left 2 ;iD
TEXT -360 1040 Left 2 ;XOR
TEXT 344 560 Left 4 ;Arithmetic Components
TEXT 664 72 Left 2 ;TYPE2
TEXT 656 264 Left 2 ;TYPE3
TEXT -376 552 Left 2 ;DEADTIME
TEXT -160 552 Left 2 ;iGD
TEXT 16 552 Left 2 ;GD
TEXT -200 1048 Left 2 ;POSEDGE
TEXT -192 1144 Left 2 ;TIMER
TEXT -360 1144 Left 2 ;SRFF
TEXT 584 1176 Left 2 ;CONST
TEXT 760 936 Left 2 ;MUL
TEXT 600 936 Left 2 ;SUM
TEXT 600 1064 Left 2 ;SUB
TEXT 384 928 Left 2 ;GAIN
TEXT 608 784 Left 2 ;CMP
TEXT 640 624 Left 2 ;LIMIT
TEXT 392 632 Left 2 ;MUX
TEXT 376 784 Left 2 ;MIN
TEXT 424 1064 Left 2 ;ZCD
TEXT 424 1176 Left 2 ;ABS
TEXT 784 1176 Left 2 ;SLOPE
TEXT 992 88 Left 2 ;PWM
TEXT 1160 88 Left 2 ;PHASESHIFT
TEXT 1016 248 Left 2 ;VCO
TEXT 1152 248 Left 2 ;PHASESHIFT2
TEXT 1400 88 Left 2 ;PHASESHIFT3
TEXT 152 88 Left 2 ;AC3PH
TEXT 304 88 Left 2 ;AC1PH
TEXT 1240 936 Left 2 ;CLARKE_PARK
TEXT 1472 936 Left 2 ;CLARKE_PARKinv
TEXT 1280 776 Left 2 ;CLARKE
TEXT 1488 776 Left 2 ;CLARKEinv
TEXT 1264 1128 Left 2 ;LINEVOLT
TEXT -400 496 Left 4 ;Gate Driver
TEXT 1520 1144 Left 2 ;ANGLE
TEXT 1288 584 Left 2 ;PARK
TEXT 1504 584 Left 2 ;PARKinv
TEXT 1048 1120 Left 2 ;PQ_POWER
LINE Normal 1792 464 -416 464 2
LINE Normal 256 720 -416 720 2
LINE Normal 256 944 -416 944 2
LINE Normal 96 464 96 -32 2
LINE Normal 512 464 512 -32 2
LINE Normal 928 464 928 -32 2
RECTANGLE Normal 1792 1328 -416 -32 2
