Version 4
SHEET 1 2056 1312
WIRE 832 176 608 176
WIRE 880 176 832 176
WIRE 608 208 608 176
WIRE 176 240 64 240
WIRE 304 240 272 240
WIRE 336 240 304 240
WIRE 448 240 432 240
WIRE 880 256 880 176
WIRE 176 304 96 304
WIRE 304 304 272 304
WIRE 336 304 304 304
WIRE 464 304 432 304
WIRE 608 320 608 288
WIRE 304 336 304 304
WIRE 464 336 464 304
WIRE 832 336 800 336
WIRE -16 352 -32 352
WIRE 64 352 64 240
WIRE 64 352 48 352
WIRE 704 352 672 352
WIRE 880 368 880 352
WIRE 880 368 800 368
WIRE 880 400 880 368
WIRE 912 400 880 400
WIRE 976 400 912 400
WIRE 1152 400 1056 400
WIRE 1232 400 1152 400
WIRE 1248 400 1232 400
WIRE 64 432 64 352
WIRE 128 432 64 432
WIRE 400 448 352 448
WIRE 448 448 400 448
WIRE 592 448 544 448
WIRE 672 448 672 352
WIRE 672 448 592 448
WIRE 1152 448 1152 400
WIRE 1248 448 1248 400
WIRE 96 464 96 304
WIRE 96 464 16 464
WIRE 128 464 96 464
WIRE 880 464 880 400
WIRE 880 592 880 528
WIRE 1152 592 1152 512
WIRE 1248 592 1248 528
FLAG 880 592 0
FLAG 608 320 0
FLAG 1152 592 0
FLAG 1232 400 out
FLAG 832 176 in
FLAG 912 400 sw
FLAG 400 448 duty
FLAG 1248 592 0
FLAG 592 448 pwm
FLAG -32 352 out
FLAG 304 240 duty
FLAG 464 336 0
FLAG 448 240 out
FLAG 304 336 0
SYMBOL ind 960 416 R270
WINDOW 0 32 56 VTop 2
WINDOW 3 5 56 VBottom 2
SYMATTR InstName L1
SYMATTR Value 10µ
SYMATTR SpiceLine Rser=10m
SYMBOL cap 1136 448 R0
SYMATTR InstName C1
SYMATTR Value 22µ
SYMATTR SpiceLine Rser=1m
SYMBOL iGD 752 352 R0
SYMATTR InstName X2
SYMBOL res 1232 432 R0
SYMATTR InstName R1
SYMATTR Value {Rload}
SYMBOL PWM 496 448 R0
WINDOW 39 -59 41 Left 2
SYMATTR SpiceLine freq=2Meg
SYMATTR InstName X4
SYMBOL CONST -16 464 R0
WINDOW 39 3 25 Top 2
SYMATTR InstName X6
SYMBOL fra 48 352 R270
WINDOW 0 16 -32 VTop 2
SYMATTR InstName @1
SYMATTR SpiceLine delay=10m fstart=100 fend=500k oct=2 nmax=2 pp0=50m pp1=1m f0=100 f1=100k tavgmin=0.3m
SYMBOL fraprobe 384 320 R0
SYMATTR InstName &1plant
SYMBOL fraprobe 224 320 R0
SYMATTR InstName &1comp
SYMBOL voltage 608 192 R0
SYMATTR InstName V1
SYMATTR Value 5
SYMBOL iNMOS 880 304 R0
SYMATTR InstName X7
SYMBOL iD 880 496 R180
SYMATTR InstName X3
SYMBOL TYPE3 240 448 R0
WINDOW 39 3 74 Bottom 2
WINDOW 40 3 105 Bottom 2
WINDOW 3 -21 135 Bottom 2
SYMATTR SpiceLine g=1.5 fz1=0.1k fz2=20k
SYMATTR SpiceLine2 fp1=500k fp2=800k
SYMATTR InstName X1
TEXT 600 8 Left 2 ;.tran 0 20m 0 10n
TEXT 8 32 Left 2 !;.save V(out) V(sw) I(L1) V(duty)
TEXT 600 40 Left 2 !.fra
TEXT -16 -72 Left 5 ;Voltage Mode Asynchronous Buck
TEXT 1048 -72 Left 2 ;2025-1-4
TEXT 8 -8 Left 2 ;Vin=5V, Vout=1V/10mA, fsw=2MHz
TEXT 1128 344 Left 2 !.ic V(out)=1
TEXT 600 72 Left 2 !.step param Rload list 1k 1
