Version 4.1
SHEET 1 2588 2296
WIRE 160 304 112 304
WIRE 160 352 160 304
WIRE 208 352 160 352
WIRE 1088 368 448 368
WIRE -64 384 -112 384
WIRE 208 384 16 384
WIRE 352 384 304 384
WIRE -64 416 -208 416
WIRE 208 416 160 416
WIRE 160 464 160 416
WIRE 160 464 112 464
WIRE 352 480 352 384
WIRE 448 480 448 368
WIRE 320 512 272 512
WIRE 416 512 384 512
WIRE 656 512 480 512
WIRE 656 544 496 544
WIRE 800 544 752 544
WIRE 656 576 624 576
WIRE -208 656 -208 416
WIRE 368 656 -208 656
WIRE 496 656 496 544
WIRE 496 656 448 656
WIRE 624 672 624 576
WIRE 624 672 608 672
WIRE -208 688 -208 656
WIRE 368 688 304 688
WIRE 800 688 800 544
WIRE 832 688 800 688
WIRE 832 720 656 720
WIRE 992 720 928 720
WIRE 1088 720 1088 368
WIRE 1088 720 1056 720
WIRE 1200 720 1088 720
WIRE 832 752 800 752
WIRE -112 784 -112 384
WIRE 224 784 -112 784
WIRE 304 784 304 688
WIRE 304 784 288 784
WIRE 800 800 800 752
WIRE 800 800 784 800
WIRE -208 816 -208 768
WIRE -112 816 -112 784
WIRE 224 816 192 816
WIRE 192 864 192 816
WIRE 192 864 160 864
WIRE -112 944 -112 896
WIRE 448 944 352 944
WIRE 656 944 656 720
WIRE 656 944 528 944
WIRE 448 976 416 976
WIRE 352 1056 352 944
WIRE 352 1056 -704 1056
WIRE 1024 1056 1024 752
WIRE 1024 1056 352 1056
FLAG -704 1056 CLK
IOPIN -704 1056 In
FLAG 1200 720 out
IOPIN 1200 720 Out
FLAG -208 816 0
FLAG -112 944 0
FLAG 416 976 0
SYMBOL SAMPLEHOLD 1024 720 R0
SYMATTR InstName X1
SYMBOL CONST 240 512 R0
WINDOW 39 -3 55 Bottom 2
SYMATTR SpiceLine K={step}
SYMATTR InstName X2
SYMBOL SUM 448 512 M180
SYMATTR InstName X3
SYMBOL MUX 704 544 R0
SYMATTR InstName X4
SYMBOL CONST 576 672 R0
WINDOW 39 -3 55 Bottom 2
SYMATTR SpiceLine K={min}
SYMATTR InstName X5
SYMBOL bv -208 672 M0
WINDOW 3 25 92 Left 2
SYMATTR Value V=IF(V(out)<{min+step}*0.999,1,0)
SYMATTR InstName B1
SYMBOL bv -112 800 R0
WINDOW 0 -48 14 Left 2
WINDOW 3 -386 87 Left 2
SYMATTR InstName B2
SYMATTR Value V=IF(V(out)>{max}*0.999,1,0)
SYMBOL MUX 256 384 R0
SYMATTR InstName X7
SYMBOL MUL 352 512 M180
SYMATTR InstName X8
SYMBOL CONST 80 304 R0
WINDOW 39 -3 55 Bottom 2
SYMATTR SpiceLine K=-1
SYMATTR InstName X9
SYMBOL CONST 80 464 R0
WINDOW 39 -3 55 Bottom 2
SYMATTR InstName X10
SYMBOL SRFF -32 400 R0
SYMATTR InstName X11
SYMBOL SRFF 400 672 R0
SYMATTR InstName X6
SYMBOL Digital\\and 256 736 R0
SYMATTR InstName A1
SYMBOL CONST 128 864 R0
WINDOW 39 -3 55 Bottom 2
SYMATTR SpiceLine K={mode}
SYMATTR InstName X12
SYMBOL MUX 880 720 R0
SYMATTR InstName X13
SYMBOL CONST 752 800 R0
WINDOW 39 -3 55 Bottom 2
SYMATTR SpiceLine K={init}
SYMATTR InstName X14
SYMBOL SRFF 480 960 R0
SYMATTR InstName X15
TEXT -760 80 Left 2 !.param init=0\n.param min=0\n.param max=256\n.param step=1\n.param mode=1
TEXT -768 8 Left 6 ;Counter
TEXT 1152 48 Left 2 ;2025-07-21
TEXT 1080 784 Left 2 !.ic V(out)={init}
TEXT -496 80 Left 2 ;initial Value\nmin value\nmax value\ninvrement\n1: loopback 0: reverse
TEXT -768 1016 Left 2 ;Clock
TEXT -744 1136 Left 2 ;<Revision History>\n2025-07-21: Initial version
