Version 4
SHEET 1 880 680
WIRE 80 -496 -192 -496
WIRE 336 -496 240 -496
WIRE 80 -448 0 -448
WIRE 336 -448 256 -448
WIRE 0 -368 0 -448
WIRE 0 -368 -160 -368
WIRE 80 -368 80 -400
WIRE 0 0 0 0
FLAG -192 -496 D
IOPIN -192 -496 In
FLAG -160 -368 CLK
IOPIN -160 -368 In
FLAG 336 -496 Q
IOPIN 336 -496 Out
FLAG 336 -448 xQ
IOPIN 336 -448 Out
FLAG 80 -368 0
SYMBOL Digital\\dflop 160 -544 R0
SYMATTR InstName A1
TEXT -256 -648 Left 3 ;D Flip-Flop
TEXT -232 -520 Left 1 ;binary
TEXT -200 -392 Left 1 ;binary
TEXT 328 -520 Left 1 ;binary
TEXT 336 -472 Left 1 ;binary
TEXT 328 -640 Left 2 ;2025-1-3
