Version 4
SHEET 1 880 680
WIRE 320 -48 224 -48
WIRE 464 -48 400 -48
WIRE 560 -48 528 -48
WIRE 64 48 16 48
WIRE 224 48 224 -48
WIRE 320 48 224 48
WIRE 464 48 400 48
WIRE 560 48 560 -48
WIRE 560 48 528 48
WIRE 656 48 560 48
WIRE 224 96 224 48
WIRE 224 208 224 176
WIRE 656 208 224 208
FLAG 16 48 in
IOPIN 16 48 In
FLAG 656 48 g
IOPIN 656 48 BiDir
FLAG 656 208 s
IOPIN 656 208 BiDir
SYMBOL bv 224 80 R0
SYMATTR InstName B1
SYMATTR Value V=IF(V(IN)>0.5,{vdd},{vss})
SYMBOL res 416 32 R90
WINDOW 0 0 56 VBottom 2
WINDOW 3 32 56 VTop 2
SYMATTR InstName R1
SYMATTR Value {ron}
SYMBOL res 416 -64 R90
WINDOW 0 0 56 VBottom 2
WINDOW 3 32 56 VTop 2
SYMATTR InstName R2
SYMATTR Value {roff}
SYMBOL diode 464 64 R270
WINDOW 0 32 32 VTop 2
WINDOW 3 0 32 VBottom 2
SYMATTR InstName D1
SYMATTR Value gd_iD
SYMBOL diode 528 -32 M270
WINDOW 0 32 32 VTop 2
WINDOW 3 0 32 VBottom 2
SYMATTR InstName D2
SYMATTR Value gd_iD
TEXT -48 -224 Left 2 !.param vdd=15\n.param vss=0\n.param ron=1\n.param roff=1
TEXT -56 -288 Left 4 ;Non-ideal Gate Driver
TEXT 184 -224 Left 2 ;Drive Voltage (On)\nDrive Voltage (Off)\nDrive strength (On)\nDrive strength (Off)
TEXT -24 72 Left 1 ;binary
TEXT 656 16 Left 2 ;gate
TEXT 656 176 Left 2 ;source
TEXT 240 248 Left 2 !.model gd_iD D(Ron=1p Roff=10G Vfwd=1n)
TEXT 544 -280 Left 2 ;2024-12-31
