Version 4
SHEET 1 1336 680
WIRE 288 -288 288 -320
WIRE 608 -288 288 -288
WIRE 928 -288 608 -288
WIRE 288 -240 288 -288
WIRE 608 -240 608 -288
WIRE 928 -192 928 -288
WIRE 288 -112 288 -160
WIRE 608 -112 608 -160
WIRE 688 -112 608 -112
WIRE 240 -96 96 -96
WIRE 608 -80 608 -112
WIRE 928 -80 928 -112
WIRE 688 -64 688 -112
WIRE 688 -64 656 -64
WIRE 240 -48 208 -48
WIRE 688 -16 656 -16
WIRE 208 0 208 -48
WIRE 288 0 288 -32
WIRE 288 0 208 0
WIRE 608 32 608 0
WIRE 688 32 688 -16
WIRE 688 32 608 32
WIRE 288 80 288 0
WIRE 608 80 608 32
WIRE 608 80 288 80
WIRE 928 80 928 -16
WIRE 928 80 608 80
WIRE 288 112 288 80
FLAG 288 -320 D
IOPIN 288 -320 BiDir
FLAG 288 112 S
IOPIN 288 112 BiDir
FLAG 96 -96 G
IOPIN 96 -96 BiDir
SYMBOL sw 288 -16 M180
SYMATTR InstName S1
SYMATTR Value SW_iNMOS
SYMBOL sw 608 -96 M0
SYMATTR InstName S2
SYMATTR Value SW_iNMOS_D
SYMBOL res 912 -208 R0
SYMATTR InstName R1
SYMATTR Value {rsnb}
SYMBOL cap 912 -80 R0
SYMATTR InstName C1
SYMATTR Value {csnb}
SYMBOL ind 272 -256 R0
SYMATTR InstName L1
SYMATTR Value {esl}
SYMBOL ind 592 -256 R0
SYMATTR InstName L2
SYMATTR Value {esl}
TEXT 56 -440 Left 2 !.MODEL SW_iNMOS SW (VT=0.5 RON={ron} ROFF=100Meg)\n.MODEL SW_iNMOS_D SW (VT=1p RON=10u ROFF=100Meg)
TEXT 56 -568 Left 2 !.param ron=10m\n.param esl=1f\n.param rsnb=1k\n.param csnb=10p
TEXT 552 -320 Left 2 ;body diode
TEXT 888 -320 Left 2 ;snubber
TEXT 56 -120 Left 1 ;binary
TEXT 40 -624 Left 4 ;Ideal Gate Driver
TEXT 312 -568 Left 2 ;on resistance of NMOS\nseries inductance\nsnubber resistance\nsnubber capacitance
TEXT 312 -344 Left 2 ;Drain
TEXT 312 136 Left 2 ;Source
TEXT 56 -64 Left 2 ;Gate
TEXT 624 -616 Left 2 ;2024-12-29
