Version 4
SHEET 1 1360 680
WIRE 1264 144 192 144
WIRE 192 176 192 144
WIRE 80 208 32 208
WIRE 192 288 192 256
FLAG 32 208 in
IOPIN 32 208 In
FLAG 192 288 0
FLAG 1264 144 out
IOPIN 1264 144 Out
SYMBOL bv 192 160 R0
SYMATTR InstName B1
SYMATTR Value V=IF(V(in)>0,IF(V(in)>(1/{vsat}),1/V(in),{vsat}),IF(V(in)>(-1/{vsat}),-{vsat},1/V(in)))
TEXT -32 16 Left 4 ;Inverse
TEXT 440 16 Left 2 ;2025-1-3
TEXT -24 64 Left 2 !.param vsat=1k
TEXT 224 64 Left 2 ;saturation voltage
