Version 4
SHEET 1 1624 680
WIRE 16 -112 -96 -112
WIRE 128 -112 96 -112
WIRE 208 -112 128 -112
WIRE 560 -112 288 -112
WIRE 128 -96 128 -112
WIRE 288 -96 288 -112
WIRE 128 -16 128 -32
WIRE 288 0 288 -16
WIRE 560 80 560 -112
WIRE 624 80 560 80
WIRE 624 112 560 112
WIRE 800 112 720 112
WIRE -144 144 -208 144
WIRE -96 144 -96 -112
WIRE 128 144 -96 144
WIRE 624 144 368 144
WIRE -96 208 -96 144
WIRE 560 208 560 112
WIRE -96 320 -96 288
WIRE 560 336 560 288
FLAG -208 144 in
IOPIN -208 144 In
FLAG 800 112 out
IOPIN 800 112 Out
FLAG 128 -16 0
FLAG -96 320 0
FLAG 208 -112 a
FLAG 288 0 0
FLAG 560 336 0
SYMBOL PowerSim\\MUX 672 112 R0
SYMATTR InstName X1
SYMBOL SpecialFunctions\\2ndOrdLowpass 208 128 R0
SYMATTR InstName U1
SYMATTR Value f0={f} Q={q} H=1
SYMBOL res 112 -128 R90
WINDOW 0 0 56 VBottom 2
WINDOW 3 32 56 VTop 2
SYMATTR InstName R1
SYMATTR Value 1k
SYMBOL cap 112 -96 R0
SYMATTR InstName C1
SYMATTR Value {Co}
SYMBOL bv -96 192 R0
SYMATTR InstName B1
SYMATTR Value V=V(in)
SYMBOL bv 288 -112 R0
SYMATTR InstName B2
SYMATTR Value V=V(a)
SYMBOL bv 560 192 R0
SYMATTR InstName B3
SYMATTR Value V=IF({n}==1,1,0)
TEXT -264 -368 Left 4 ;1st/2nd order Low Pass Filter
TEXT 696 -368 Left 2 ;2025-3-23
TEXT -256 -304 Left 2 !.param f=100k\n.param n=1\n.param q=0.5
TEXT 152 -144 Left 2 !.param Co=1/({f}*2k*PI)
TEXT 0 -304 Left 2 ;cut off frequency\nfilter order (1:1st order, other: 2nd order)\nq factor (only for 2nd order)
TEXT -8 -192 Left 2 ;1st Order LPF
TEXT -8 48 Left 2 ;2nd Order LPF
TEXT 616 16 Left 2 ;Selector
RECTANGLE Normal 496 32 -16 -176 2
RECTANGLE Normal 496 240 -16 64 2
