Version 4.1
SHEET 1 1156 848
WIRE 336 224 336 192
WIRE 864 256 496 256
WIRE 1024 272 944 272
WIRE 864 288 816 288
WIRE 336 336 336 304
WIRE 336 336 304 336
WIRE 496 336 496 256
WIRE 496 336 336 336
WIRE 544 336 496 336
WIRE 688 336 608 336
WIRE 816 336 816 288
WIRE 816 336 752 336
WIRE 336 368 336 336
WIRE 336 464 336 432
WIRE 464 528 80 528
WIRE 576 528 576 368
WIRE 576 528 528 528
WIRE 720 688 720 368
WIRE 720 688 80 688
FLAG 336 192 0
FLAG 336 464 0
FLAG 1024 272 out
IOPIN 1024 272 Out
FLAG 304 336 a
FLAG 80 528 ton
IOPIN 80 528 In
FLAG 80 688 trg
IOPIN 80 688 In
SYMBOL current 336 224 R0
SYMATTR InstName I1
SYMATTR Value {ibias}
SYMBOL cap 320 368 R0
SYMATTR InstName C1
SYMATTR Value {cacc}
SYMBOL PowerSim\\SUM 576 336 R0
SYMATTR InstName X2
SYMBOL PowerSim\\GAIN 496 528 R0
WINDOW 39 9 61 Bottom 2
SYMATTR SpiceLine G={ibias/cacc}
SYMATTR InstName X4
SYMBOL PowerSim\\SAMPLEHOLD 720 336 R0
SYMATTR InstName X5
SYMBOL PowerSim\\CMP 912 272 R0
SYMATTR InstName X6
TEXT 0 88 Left 4 ;One Shot Pulse Generator
TEXT 88 408 Left 2 !.param cacc=1u\n.param ibias=1u
TEXT 88 376 Left 2 !.ic V(a)=0
TEXT 1016 88 Left 2 ;2025-12-29
