Version 4
SHEET 1 1624 680
WIRE 0 -144 -32 -144
WIRE 0 -64 0 -144
WIRE 32 -64 0 -64
WIRE 144 -48 96 -48
WIRE 272 -48 208 -48
WIRE 496 -48 432 -48
WIRE -96 -32 -176 -32
WIRE 32 -32 -32 -32
FLAG -176 -32 clk
IOPIN -176 -32 In
FLAG 496 -48 saw
IOPIN 496 -48 Out
SYMBOL PowerSim\\SLOPE 176 -48 R0
WINDOW 39 -2 51 Bottom 2
WINDOW 40 -6 75 Bottom 2
SYMATTR SpiceLine se={f}
SYMATTR SpiceLine2 vsat=2
SYMATTR InstName X1
SYMBOL PowerSim\\POSEDGE -64 -32 R0
WINDOW 39 3 55 Bottom 2
SYMATTR SpiceLine td={td}
SYMATTR InstName X2
SYMBOL PowerSim\\EXOR 64 -48 R0
SYMATTR InstName X3
SYMBOL PowerSim\\CONST -64 -144 R0
WINDOW 39 1 51 Bottom 2
SYMATTR InstName X4
SYMBOL PowerSim\\LIMIT 352 -48 R0
WINDOW 39 26 71 Bottom 2
SYMATTR SpiceLine max={vh} min=0
SYMATTR InstName X5
TEXT -256 -408 Left 4 ;SAW Generator
TEXT 584 -432 Left 2 ;2025-3-22
TEXT -240 -360 Left 2 !.param f=1Meg\n.param td=10n
TEXT 0 -360 Left 2 ;frequency of the input clock\ndelay from clk posedge to start of the slope
TEXT 480 -224 Right 1 ;1
TEXT 608 -192 Left 1 ;0
TEXT 312 40 Left 2 !.param vh=1
TEXT 496 -184 Right 1 ;td
LINE Normal 528 -224 497 -192
LINE Normal 496 -176 496 -240 2
LINE Normal 576 -160 576 -160 2
LINE Normal 496 -240 480 -240
LINE Normal 496 -240 496 -272
LINE Normal 512 -272 496 -272
LINE Normal 512 -240 512 -272
LINE Normal 528 -240 512 -240
LINE Normal 528 -240 528 -272
LINE Normal 544 -272 528 -272
LINE Normal 544 -240 544 -272
LINE Normal 560 -240 544 -240
LINE Normal 560 -240 560 -272
LINE Normal 576 -272 560 -272
LINE Normal 576 -240 576 -272
LINE Normal 528 -176 528 -240 2
LINE Normal 560 -176 560 -240 2
LINE Normal 560 -224 529 -192
LINE Normal 496 -192 496 -224
LINE Normal 496 -224 465 -192
LINE Normal 497 -192 496 -192
LINE Normal 528 -192 528 -224
LINE Normal 529 -192 528 -192
LINE Normal 592 -224 561 -192
LINE Normal 560 -192 560 -224
LINE Normal 561 -192 560 -192
LINE Normal 480 -224 544 -224 2
LINE Normal 544 -192 608 -192 2
LINE Normal 494 -251 496 -256
LINE Normal 498 -251 496 -256
LINE Normal 526 -251 528 -256
LINE Normal 530 -251 528 -256
LINE Normal 558 -251 560 -256
LINE Normal 562 -251 560 -256
CIRCLE Normal 512 -192 496 -192 2
CIRCLE Normal 492 -198 502 -188 2
