Version 4
SHEET 1 880 680
WIRE -224 224 -256 224
WIRE -144 224 -176 224
WIRE 176 224 -80 224
WIRE 384 224 176 224
WIRE 448 224 384 224
WIRE 672 224 576 224
WIRE 176 240 176 224
WIRE 448 240 448 224
WIRE 576 240 576 224
WIRE -144 256 -144 240
WIRE 384 256 384 224
WIRE -176 304 -176 224
WIRE 176 336 176 304
WIRE 176 336 160 336
WIRE 384 336 384 320
WIRE 384 336 176 336
WIRE 448 336 448 304
WIRE 448 336 384 336
WIRE 576 336 576 320
WIRE 176 352 176 336
WIRE -176 448 -176 384
WIRE 176 448 176 416
FLAG 672 224 out
IOPIN 672 224 Out
FLAG -256 224 in
IOPIN -256 224 In
FLAG 576 336 0
FLAG 176 448 0
FLAG 160 336 a
FLAG -144 256 0
FLAG -176 448 0
SYMBOL bv 576 224 R0
SYMATTR InstName B2
SYMATTR Value V=V(a)
SYMBOL load 160 240 R0
WINDOW 0 46 14 Left 2
WINDOW 3 34 44 Left 2
WINDOW 123 0 0 Left 2
WINDOW 39 34 72 Left 2
SYMATTR InstName I1
SYMATTR Value {se}
SYMATTR SpiceLine load
SYMBOL cap 160 352 R0
SYMATTR InstName C2
SYMATTR Value 1
SYMBOL Digital\\buf1 -144 160 R0
WINDOW 3 18 86 Left 2
SYMATTR Value Vhigh={se} Rout=1p
SYMATTR InstName A1
SYMBOL bv -176 288 R0
SYMATTR InstName B1
SYMATTR Value V=V(in)*{se}
SYMBOL diode 400 320 R180
WINDOW 0 24 64 Left 2
WINDOW 3 24 0 Left 2
SYMATTR InstName D1
SYMATTR Value slope_iD
SYMBOL cap 432 240 R0
SYMATTR InstName C1
SYMATTR Value 100p
SYMATTR SpiceLine Rser=10k
TEXT -304 112 Left 2 !.param se=1
TEXT -88 488 Left 2 !.model slope_iD D(Ron=1p Roff=10G Vfwd=1n)
TEXT -304 24 Left 4 ;Slope
TEXT -304 200 Left 1 ;binary
TEXT -136 112 Left 2 ;dv/dt of the slope(V/sec)
TEXT 248 136 Left 1 ;in
TEXT 240 72 Left 1 ;out
TEXT 376 80 Right 1 ;dv/dt=se
TEXT 552 40 Left 2 ;2024-12-29
LINE Normal 288 144 240 144
LINE Normal 288 144 288 112
LINE Normal 384 112 288 112
LINE Normal 384 144 384 112
LINE Normal 432 144 384 144
LINE Normal 288 80 240 80
LINE Normal 288 80 384 32
LINE Normal 384 80 384 32
LINE Normal 432 80 384 80
LINE Normal 288 112 288 80 1
LINE Normal 384 112 384 80 1
RECTANGLE Normal 448 160 225 18 2
