Version 4.1
SHEET 1 1360 996
WIRE 304 224 -144 224
WIRE 368 224 304 224
WIRE 768 224 576 224
WIRE -144 240 -144 224
WIRE 368 240 368 224
WIRE 576 240 576 224
WIRE 304 256 304 224
WIRE -240 288 -272 288
WIRE -144 336 -144 320
WIRE 304 336 304 320
WIRE 304 336 288 336
WIRE 368 336 368 304
WIRE 368 336 304 336
WIRE 576 336 576 320
WIRE 304 352 304 336
WIRE 304 448 304 416
FLAG 768 224 out
IOPIN 768 224 Out
FLAG -272 288 in
IOPIN -272 288 In
FLAG 576 336 0
FLAG 304 448 0
FLAG 288 336 a
FLAG -144 336 0
FLAG -144 224 b
SYMBOL bv 576 224 R0
SYMATTR InstName B2
SYMATTR Value V=V(a)
SYMBOL cap 288 352 R0
SYMATTR InstName C2
SYMATTR Value 1m
SYMBOL cap 352 240 R0
SYMATTR InstName C1
SYMATTR Value 10p
SYMATTR SpiceLine Rser=1k
SYMBOL bv -144 224 R0
SYMATTR InstName B1
SYMATTR Value V=IF(V(in)>0.5,{vsat}, 0)
SYMBOL diode 320 320 R180
WINDOW 0 24 64 Left 2
WINDOW 3 38 28 Left 2
SYMATTR InstName D1
SYMATTR Value slope_iD
TEXT -304 112 Left 2 !.param se=1
TEXT -304 24 Left 4 ;Slope
TEXT -320 264 Left 1 ;binary
TEXT -136 112 Left 2 ;dv/dt of the slope(V/sec)
TEXT 248 136 Left 1 ;in
TEXT 240 72 Left 1 ;out
TEXT 376 80 Right 1 ;dv/dt=se
TEXT 552 40 Left 2 ;2025-05-31
TEXT -312 672 Left 2 ;<Revision History>\n2024-12-29: Initial Versoin\n2025-02-23: Made following edit to remove negative spike at slope reset and improve simulation time.\n                    - scale of I1 & C2 by 1/1000, and reduced resistance of diode Ron and buffer Rout\n                    - changed C1 snubber parameter, \n                    - added D2 to clamp negative voltage at node a \n                    - added new parameter vsat to be able to specify saturating voltage\n2025-04-12: Bug fix \n                    - Fixed a bug where the model would not work when vsat was set to a high voltage \n                    - Changed default vsat to 1000V (originally 1V).\n2025-05-31: Solved convergence issue at high "se" \n                    - Replaced current source with state machine.
TEXT -304 144 Left 2 !.param vsat=1000
TEXT -144 416 Left 2 !.machine\n.state LO 0\n.state HI {se}\n.rule LO HI V(in)>0.9\n.rule HI LO V(in)<0.6\n.output (a) state\n.endmachine
TEXT 208 544 Left 2 !.model slope_iD D(Ron=1n Roff=10G Vfwd=1n)
LINE Normal 288 144 240 144
LINE Normal 288 144 288 112
LINE Normal 384 112 288 112
LINE Normal 384 144 384 112
LINE Normal 432 144 384 144
LINE Normal 288 80 240 80
LINE Normal 288 80 384 32
LINE Normal 384 80 384 32
LINE Normal 432 80 384 80
LINE Normal 288 112 288 80 1
LINE Normal 384 112 384 80 1
RECTANGLE Normal 448 160 225 18 2
