Version 4
SHEET 1 880 680
WIRE -48 -496 -192 -496
WIRE 64 -496 16 -496
WIRE 480 -496 448 -496
WIRE 544 -496 480 -496
WIRE 592 -496 544 -496
WIRE 672 -496 656 -496
WIRE -48 -464 -80 -464
WIRE 480 -464 480 -496
WIRE 592 -464 592 -480
WIRE -32 -432 -32 -448
WIRE -160 -368 -192 -368
WIRE -80 -368 -80 -464
WIRE -80 -368 -96 -368
WIRE 480 -368 480 -384
WIRE 544 -368 544 -496
WIRE 592 -368 544 -368
WIRE 672 -368 656 -368
WIRE -160 -336 -160 -352
WIRE 592 -336 592 -352
FLAG -192 -496 S
IOPIN -192 -496 In
FLAG -192 -368 R
IOPIN -192 -368 In
FLAG -160 -336 0
FLAG -32 -432 0
FLAG 64 -496 Sa
FLAG 592 -336 0
FLAG 672 -496 Q
IOPIN 672 -496 Out
FLAG 672 -368 xQ
IOPIN 672 -368 Out
FLAG 592 -464 0
FLAG 448 -496 Qa
FLAG 480 -368 0
SYMBOL Digital\\inv -160 -432 R0
SYMATTR InstName A1
SYMBOL Digital\\and -16 -544 R0
SYMATTR InstName A2
SYMBOL Digital\\inv 592 -432 R0
SYMATTR InstName A3
SYMBOL Digital\\buf1 592 -560 R0
SYMATTR InstName A4
SYMBOL res 464 -480 R0
SYMATTR InstName R1
SYMATTR Value 1k
TEXT 112 -544 Left 2 !.machine\n.state LO 0\n.state HI1 1\n.state HI2 1\n.rule LO HI1 V(Sa)>0.5\n.rule HI1 HI2 V(Sa)<0.5\n.rule HI2 LO V(R)>0.5\n.output (Qa) state\n.endmachine
TEXT -256 -648 Left 3 ;SR Flip-Flop
TEXT -232 -520 Left 1 ;binary
TEXT -232 -392 Left 1 ;binary
TEXT 664 -520 Left 1 ;binary
TEXT 672 -392 Left 1 ;binary
TEXT 328 -640 Left 2 ;2024-12-29
RECTANGLE Normal 412 -294 96 -576 2
