Version 4
SHEET 1 2892 2448
WIRE -640 -128 -720 -128
WIRE -384 -128 -416 -128
WIRE -640 -32 -720 -32
WIRE -384 -32 -416 -32
WIRE -384 64 -416 64
WIRE -640 96 -688 96
FLAG -720 -128 sp
IOPIN -720 -128 In
FLAG -720 -32 sq
IOPIN -720 -32 In
FLAG -688 96 theta
IOPIN -688 96 In
FLAG -384 -128 sa
IOPIN -384 -128 Out
FLAG -384 -32 sb
IOPIN -384 -32 Out
FLAG -384 64 sc
IOPIN -384 64 Out
TEXT -136 -184 Left 2 !B1 sect1 0 V=(V(theta)>(11*PI/6))&((V(theta)<=(12*PI/6)))\nB2 sect2 0 V=(V(theta)>0)&((V(theta)<=(PI/6)))\nB3 sect3 0 V=(V(theta)>(PI/6))&((V(theta)<=(2*PI/6)))\nB4 sect4 0 V=(V(theta)>(2*PI/6))&((V(theta)<=(3*PI/6)))\nB5 sect5 0 V=(V(theta)>(3*PI/6))&((V(theta)<=(4*PI/6)))\nB6 sect6 0 V=(V(theta)>(4*PI/6))&((V(theta)<=(5*PI/6)))\nB7 sect7 0 V=(V(theta)>(5*PI/6))&((V(theta)<=(6*PI/6)))\nB8 sect8 0 V=(V(theta)>(6*PI/6))&((V(theta)<=(7*PI/6)))\nB9 sect9 0 V=(V(theta)>(7*PI/6))&((V(theta)<=(8*PI/6)))\nB10 sect10 0 V=(V(theta)>(8*PI/6))&((V(theta)<=(9*PI/6)))\nB11 sect11 0 V=(V(theta)>(9*PI/6))&((V(theta)<=(10*PI/6)))\nB12 sect12 0 V=(V(theta)>(10*PI/6))&((V(theta)<=(11*PI/6)))\n \nBa1 sa1 0 V=1\nBa2 sa2 0 V=1\nBa3 sa3 0 V=(V(sp)<0.5)|((V(sp)>0.5)&(V(sq)<0.5))\nBa4 sa4 0 V=((V(sp)<0.5)&(V(sq)<0.5))\nBa5 sa5 0 V=(V(sp)>0.5)|((V(sp)<0.5)&(V(sq)<0.5))\nBa6 sa6 0 V=(V(sp)>0.5)\nBa7 sa7 0 V=0\nBa8 sa8 0 V=0\nBa9 sa9 0 V=((V(sp)>0.5)&(V(sq)>0.5))\nBa10 sa10 0 V=(V(sp)>0.5)|((V(sp)<0.5)&(V(sq)>0.5))\nBa11 sa11 0 V=((V(sp)<0.5)&(V(sq)>0.5))\nBa12 sa12 0 V=(V(sp)<0.5)\n \nBb1 sb1 0 V=((V(sp)>0.5)&(V(sq)>0.5))\nBb2 sb2 0 V=(V(sp)>0.5)|((V(sp)<0.5)&(V(sq)>0.5))\nBb3 sb3 0 V=((V(sp)<0.5)&(V(sq)>0.5))\nBb4 sb4 0 V=(V(sp)<0.5)\nBb5 sb5 0 V=1\nBb6 sb6 0 V=1\nBb7 sb7 0 V=(V(sp)<0.5)|((V(sp)>0.5)&(V(sq)<0.5))\nBb8 sb8 0 V=((V(sp)<0.5)&(V(sq)<0.5))\nBb9 sb9 0 V=(V(sp)>0.5)|((V(sp)<0.5)&(V(sq)<0.5))\nBb10 sb10 0 V=(V(sp)>0.5)\nBb11 sb11 0 V=0\nBb12 sb12 0 V=0\n \nBc1 sc1 0 V=(V(sp)>0.5)|((V(sp)<0.5)&(V(sq)<0.5))\nBc2 sc2 0 V=(V(sp)>0.5)\nBc3 sc3 0 V=0\nBc4 sc4 0 V=0\nBc5 sc5 0 V=((V(sp)>0.5)&(V(sq)>0.5))\nBc6 sc6 0 V=(V(sp)>0.5)|((V(sp)<0.5)&(V(sq)>0.5))\nBc7 sc7 0 V=((V(sp)<0.5)&(V(sq)>0.5))\nBc8 sc8 0 V=(V(sp)<0.5)\nBc9 sc9 0 V=1\nBc10 sc10 0 V=1\nBc11 sc11 0 V=(V(sp)<0.5)|((V(sp)>0.5)&(V(sq)<0.5))\nBc12 sc12 0 V=((V(sp)<0.5)&(V(sq)<0.5))\n \nBsa sa 0 V=(V(sa1)&V(sect1))|(V(sa2)&V(sect2))|(V(sa3)&V(sect3))|(V(sa4)&V(sect4))|(V(sa5)&V(sect5))|(V(sa6)&V(sect6))|(V(sa7)&V(sect7))|(V(sa8)&V(sect8))|(V(sa9)&V(sect9))|(V(sa10)&V(sect10))|(V(sa11)&V(sect11))|(V(sa12)&V(sect12))\n \nBsb sb 0 V=(V(sb1)&V(sect1))|(V(sb2)&V(sect2))|(V(sb3)&V(sect3))|(V(sb4)&V(sect4))|(V(sb5)&V(sect5))|(V(sb6)&V(sect6))|(V(sb7)&V(sect7))|(V(sb8)&V(sect8))|(V(sb9)&V(sect9))|(V(sb10)&V(sect10))|(V(sb11)&V(sect11))|(V(sb12)&V(sect12))\n \nBsc sc 0 V=(V(sc1)&V(sect1))|(V(sc2)&V(sect2))|(V(sc3)&V(sect3))|(V(sc4)&V(sect4))|(V(sc5)&V(sect5))|(V(sc6)&V(sect6))|(V(sc7)&V(sect7))|(V(sc8)&V(sect8))|(V(sc9)&V(sect9))|(V(sc10)&V(sect10))|(V(sc11)&V(sect11))|(V(sc12)&V(sect12))
TEXT -776 -248 Left 4 ;Three Phase Switch Table
TEXT -768 -104 Left 1 ;binary
TEXT -768 -8 Left 1 ;binary
TEXT -776 64 Left 2 ;Angle(rad)
TEXT -384 -104 Left 1 ;binary
TEXT -384 -8 Left 1 ;binary
TEXT -384 88 Left 1 ;binary
TEXT -768 -160 Left 2 ;P input
TEXT -768 -64 Left 2 ;Q input
TEXT -400 -160 Left 2 ;A output
TEXT -400 -64 Left 2 ;B output
TEXT -400 32 Left 2 ;C output
TEXT -72 -240 Left 2 ;2024-12-29
RECTANGLE Normal -416 144 -640 -192 2
