Version 4
SHEET 1 880 680
WIRE 112 64 64 64
WIRE 432 64 256 64
WIRE 256 80 256 64
WIRE 256 176 256 160
FLAG 64 64 in
IOPIN 64 64 In
FLAG 256 176 0
FLAG 432 64 zcd
IOPIN 432 64 Out
SYMBOL bv 256 64 R0
SYMATTR InstName B1
SYMATTR Value V=IF(V(in)>0,1,0)
TEXT 16 -8 Left 4 ;Zero Cross Detector
TEXT 432 40 Left 1 ;binary
TEXT 432 88 Left 1 ;1: input positive\n0: input negative
TEXT 440 0 Left 2 ;2024-12-29
