Version 4
SHEET 1 1624 680
WIRE -64 144 -240 144
WIRE 32 144 0 144
WIRE 224 144 32 144
WIRE 320 144 288 144
WIRE 528 144 320 144
WIRE 640 144 592 144
WIRE 928 144 704 144
WIRE 960 144 928 144
WIRE 1072 144 1024 144
WIRE 1312 144 1232 144
WIRE 1344 144 1312 144
WIRE 32 304 32 144
WIRE 64 304 32 304
WIRE 160 304 128 304
WIRE 256 304 256 176
WIRE 256 304 224 304
WIRE 320 304 320 144
WIRE 352 304 320 304
WIRE 448 304 416 304
WIRE 560 304 560 176
WIRE 560 304 512 304
WIRE 672 304 672 176
WIRE 704 304 672 304
WIRE 832 304 768 304
WIRE 928 304 928 144
WIRE 928 304 896 304
WIRE 992 304 992 176
WIRE 1120 304 992 304
WIRE 1312 304 1312 144
WIRE 1312 304 1184 304
WIRE 96 416 96 336
WIRE 96 416 -240 416
WIRE 384 416 384 336
WIRE 384 416 96 416
WIRE 864 416 864 336
WIRE 864 416 384 416
WIRE 1152 416 1152 336
WIRE 1152 416 864 416
FLAG -240 416 clk
IOPIN -240 416 In
FLAG -240 144 in
IOPIN -240 144 In
FLAG 1344 144 out
IOPIN 1344 144 Out
SYMBOL PowerSim\\GAIN -32 144 R0
WINDOW 39 -4 62 Bottom 2
SYMATTR SpiceLine G={gd}
SYMATTR InstName X1
SYMBOL PowerSim\\GAIN 192 304 R0
WINDOW 39 -4 62 Bottom 2
SYMATTR SpiceLine G={zl}
SYMATTR InstName X2
SYMBOL PowerSim\\GAIN 480 304 R0
WINDOW 39 -4 62 Bottom 2
SYMATTR SpiceLine G={zz}
SYMATTR InstName X3
SYMBOL PowerSim\\SUB 256 144 R0
SYMATTR InstName X4
SYMBOL PowerSim\\SUB 560 144 R0
SYMATTR InstName X8
SYMBOL PowerSim\\SUM 672 144 R0
SYMATTR InstName X9
SYMBOL PowerSim\\LIMIT 1152 144 R0
WINDOW 39 5 76 Bottom 2
SYMATTR SpiceLine max={vh} min={vl}
SYMATTR InstName X10
SYMBOL PowerSim\\GAIN 736 304 M0
WINDOW 39 -4 62 Bottom 2
SYMATTR SpiceLine G={zp}
SYMATTR InstName X12
SYMBOL PowerSim\\SUM 992 144 R0
SYMATTR InstName X13
SYMBOL PowerSim\\SAMPLEHOLD 96 304 R0
SYMATTR InstName X6
SYMBOL PowerSim\\SAMPLEHOLD 384 304 R0
SYMATTR InstName X7
SYMBOL PowerSim\\SAMPLEHOLD 864 304 M0
SYMATTR InstName X11
SYMBOL PowerSim\\SAMPLEHOLD 1152 304 M0
SYMATTR InstName X14
TEXT -224 -288 Left 2 !.param fs=1Meg\n.param g=1\n.param fz1=1k\n.param fz2=5k\n.param fp1=30k\n.param vh=5\n.param vl=0
TEXT -264 -368 Left 4 ;Discrete PID Compensator
TEXT -288 384 Left 2 ;binary
TEXT 24 -288 Left 2 ;sampling frequency(Hz)\ntarget gain at fz1\n1st zero frequency(Hz)\n1st pole frequency(Hz)\n2nd pole frequency(Hz)\nmax ouput voltage(V)\nmin output voltage(V)
TEXT 1128 -328 Left 2 ;2025-3-22
TEXT 440 -200 Left 2 !.param fprewarp = {sqrt(fz2*fp1)}\n.param gd={(g*fp1*(1+a*fz1/fprewarp)*(1+a*fz2/fprewarp))/(fz2*(1+a*fp1/fprewarp))}\n.param a={tan(pi*fprewarp/fs)}\n.param zl={(1-a*fz1/fprewarp)/(1+a*fz1/fprewarp)}\n.param zz={(1-a*fz2/fprewarp)/(1+a*fz2/fprewarp)}\n.param zp={(1-a*fp1/fprewarp)/(1+a*fp1/fprewarp)}
