Version 4.1
SHEET 1 1716 1312
WIRE 608 -352 592 -352
WIRE 736 -352 608 -352
WIRE 800 -352 736 -352
WIRE 1008 -352 800 -352
WIRE 800 -320 800 -352
WIRE 736 -304 736 -352
WIRE 1168 -304 1088 -304
WIRE 1296 -304 1232 -304
WIRE 1344 -304 1296 -304
WIRE 1440 -304 1344 -304
WIRE 1552 -304 1440 -304
WIRE 592 -288 592 -352
WIRE 1008 -272 1008 -352
WIRE 1088 -272 1088 -304
WIRE 1344 -272 1344 -304
WIRE 1440 -272 1440 -304
WIRE 1552 -256 1552 -304
WIRE 1584 -240 1568 -240
WIRE 736 -192 736 -240
WIRE 800 -192 800 -240
WIRE 800 -192 736 -192
WIRE 1216 -192 1216 -208
WIRE 592 -176 592 -208
WIRE 1088 -160 1088 -192
WIRE 1184 -160 1088 -160
WIRE 1344 -160 1344 -208
WIRE 1344 -160 1248 -160
WIRE 1440 -160 1440 -192
WIRE 1440 -160 1344 -160
WIRE 1488 -160 1440 -160
WIRE 1552 -160 1552 -224
WIRE 1552 -160 1488 -160
WIRE 800 -128 800 -192
WIRE 752 -48 704 -48
WIRE 160 -32 96 -32
WIRE 272 -32 224 -32
WIRE 464 -32 352 -32
WIRE 608 -32 464 -32
WIRE -512 -16 -560 -16
WIRE 800 -16 800 -32
WIRE 800 -16 704 -16
WIRE 928 -16 912 -16
WIRE 272 0 256 0
WIRE 912 0 912 -16
WIRE 800 32 800 -16
WIRE 880 32 800 32
WIRE 1008 32 1008 -192
WIRE 1008 32 944 32
WIRE -512 80 -512 -16
WIRE -464 80 -512 80
WIRE -80 80 -304 80
WIRE 256 80 256 0
WIRE 256 80 -16 80
WIRE 1008 80 1008 32
WIRE -464 112 -560 112
WIRE -224 112 -304 112
WIRE -176 112 -224 112
WIRE -80 112 -112 112
WIRE 976 112 960 112
WIRE 96 128 96 -32
WIRE 576 128 96 128
WIRE 1008 176 1008 144
WIRE 1008 192 1008 176
WIRE 576 256 576 128
WIRE 576 256 528 256
WIRE -224 272 -224 112
WIRE 80 272 -224 272
WIRE 224 272 144 272
WIRE 432 272 304 272
WIRE 960 272 912 272
WIRE 624 288 528 288
WIRE 704 288 624 288
WIRE 816 288 704 288
WIRE 224 304 192 304
WIRE 1008 304 1008 288
WIRE 1008 304 912 304
WIRE 1008 352 1008 304
WIRE 1184 352 1008 352
WIRE 1488 352 1488 -160
WIRE 1488 352 1248 352
WIRE -480 384 -576 384
WIRE 1008 384 1008 352
WIRE -176 400 -256 400
WIRE -48 400 -176 400
WIRE -480 416 -560 416
WIRE 128 416 32 416
WIRE 192 416 192 304
WIRE -160 432 -192 432
WIRE -48 432 -96 432
WIRE 128 448 96 448
WIRE -560 464 -560 416
WIRE -560 464 -576 464
WIRE 1232 496 1184 496
WIRE 1328 496 1296 496
WIRE -240 544 -272 544
WIRE -128 544 -128 464
WIRE -128 544 -176 544
WIRE 96 544 96 448
WIRE 192 544 96 544
WIRE 432 544 256 544
WIRE 624 544 624 288
WIRE 624 544 496 544
WIRE 1232 608 1184 608
WIRE 1328 608 1296 608
FLAG 592 -176 0
FLAG 1008 176 sw
FLAG -176 400 vc
FLAG -272 544 pwm
FLAG -128 544 slope
FLAG 608 -352 in
FLAG 1008 384 0
FLAG 960 112 ifet
FLAG 1296 -304 out
FLAG 1584 -240 vout
FLAG -576 384 vout
FLAG -192 432 ifet
FLAG 1216 -208 il2
FLAG 912 -16 iclmp
FLAG 1184 496 ifet
FLAG 1328 496 ifet_f
FLAG 1184 608 iclmp
FLAG 1328 608 iclmp_f
FLAG 464 -32 pwmh
FLAG 704 288 pwml
SYMBOL voltage 592 -304 R0
WINDOW 0 32 56 VTop 2
WINDOW 3 -32 56 VBottom 2
WINDOW 123 0 0 Left 0
WINDOW 39 0 0 Left 0
SYMATTR InstName V1
SYMATTR Value 24
SYMBOL ind2 992 -288 R0
WINDOW 0 -45 33 Left 2
WINDOW 3 -63 70 Left 2
SYMATTR InstName L1
SYMATTR Value 10Ą
SYMATTR SpiceLine Rser=10m
SYMATTR Type ind
SYMBOL IMON 1008 112 R90
SYMATTR InstName X4
SYMBOL POSEDGE 112 272 R0
WINDOW 39 5 54 Bottom 2
SYMATTR InstName X7
SYMBOL CMP 0 416 R0
SYMATTR InstName X9
SYMBOL SRFF 256 288 R0
WINDOW 39 6 72 Bottom 2
SYMATTR SpiceLine prio=1
SYMATTR InstName X11
SYMBOL SLOPE -208 544 R0
WINDOW 39 80 59 Bottom 2
SYMATTR SpiceLine Se={(24/10u)*0.1}
SYMATTR InstName X12
SYMBOL TYPE2 -368 400 R0
WINDOW 0 0 -56 Center 2
WINDOW 39 2 58 Center 2
WINDOW 40 2 86 Center 2
SYMATTR InstName X13
SYMATTR SpiceLine g=4 fz1=1k fp1=100k
SYMATTR SpiceLine2 vh=20 vl=0
SYMBOL CONST -608 464 R0
WINDOW 39 0 51 Bottom 2
SYMATTR SpiceLine K=5
SYMATTR InstName X10
SYMBOL SUM -128 432 R0
WINDOW 0 38 37 Bottom 2
SYMATTR InstName X5
SYMBOL PowerSim\\GD 864 288 R0
WINDOW 39 2 69 Bottom 2
WINDOW 40 2 97 Bottom 2
SYMATTR SpiceLine vdd=10 vss=0
SYMATTR InstName X1
SYMBOL nmos 960 192 R0
SYMATTR InstName M1
SYMATTR Value IRF1310
SYMBOL res 784 -336 R0
SYMATTR InstName R1
SYMATTR Value 220k
SYMBOL ind2 1104 -176 R180
WINDOW 0 -33 80 Left 2
WINDOW 3 -42 41 Left 2
SYMATTR InstName L2
SYMATTR Value 10Ą
SYMATTR SpiceLine Rser=10m
SYMATTR Type ind
SYMBOL PowerSim\\iD 1200 -304 R270
WINDOW 0 16 0 VTop 2
SYMATTR InstName X2
SYMBOL cap 1328 -272 R0
SYMATTR InstName C1
SYMATTR Value 22Ą
SYMATTR SpiceLine Rser=1m
SYMBOL res 1424 -288 R0
SYMATTR InstName R2
SYMATTR Value 10
SYMBOL PowerSim\\VMON 1552 -240 R0
SYMATTR InstName X3
SYMBOL cap 752 -304 M0
SYMATTR InstName C2
SYMATTR Value 10Ą
SYMATTR SpiceLine Rser=1m
SYMBOL IMON 1216 -160 R180
SYMATTR InstName X14
SYMBOL cap 1248 336 R90
WINDOW 0 0 32 VBottom 2
WINDOW 3 32 32 VTop 2
SYMATTR InstName C3
SYMATTR Value 10p
SYMBOL PowerSim\\GD 656 -32 R0
WINDOW 39 2 69 Bottom 2
WINDOW 40 2 97 Bottom 2
SYMATTR SpiceLine vdd=10 vss=0
SYMATTR InstName X6
SYMBOL IMON 912 32 R180
SYMATTR InstName X17
SYMBOL PowerSim\\LPF 1264 496 R0
WINDOW 3 1 56 Bottom 2
SYMATTR Value f=1Meg
SYMATTR InstName X18
SYMBOL PowerSim\\LPF 1264 608 R0
WINDOW 3 1 56 Bottom 2
SYMATTR Value f=1Meg
SYMATTR InstName X19
SYMBOL POSEDGE 464 544 M0
WINDOW 39 -1 57 Bottom 2
SYMATTR SpiceLine td=100n
SYMATTR InstName X20
SYMBOL Digital\\and 160 368 R0
WINDOW 0 -9 16 Left 2
SYMATTR InstName A1
SYMBOL Digital\\inv 256 480 M0
SYMATTR InstName A2
SYMBOL nmos 752 -128 R0
SYMATTR InstName M2
SYMATTR Value IRF1310
SYMBOL PowerSim\\DEADTIME 480 272 M180
WINDOW 0 -2 66 Bottom 2
WINDOW 39 3 -42 Bottom 2
SYMATTR InstName X8
SYMATTR SpiceLine dt=100n
SYMBOL PowerSim\\PHASESHIFT2 -384 96 R0
SYMATTR InstName X21
SYMBOL PowerSim\\CONST -592 -16 R0
WINDOW 39 7 56 Bottom 2
SYMATTR SpiceLine K=180k
SYMATTR InstName X16
SYMBOL PowerSim\\CONST -592 112 R0
WINDOW 39 -1 58 Bottom 2
SYMATTR SpiceLine K=10
SYMATTR InstName X22
SYMBOL Digital\\and -48 32 R0
SYMATTR InstName A5
SYMBOL Digital\\inv -176 176 M180
SYMATTR InstName A3
SYMBOL SRFF 304 -16 R0
WINDOW 39 6 72 Bottom 2
SYMATTR SpiceLine prio=1
SYMATTR InstName X15
SYMBOL POSEDGE 192 -32 R0
WINDOW 39 5 54 Bottom 2
SYMATTR InstName X23
TEXT -568 -336 Left 2 !.tran 0 0.5m 0.48m uic
TEXT -552 -488 Left 6 ;Active Clamp Flyback
TEXT 1440 -480 Left 2 ;2026-06-19
TEXT 976 -392 Left 2 !K L1 L2 0.98
TEXT 1400 -336 Left 2 !.ic V(out)=5
TEXT 640 776 Left 2 ;2026-06-19    Initial release
TEXT -568 -400 Left 2 !.options solver="norm"\n.options method="gear"
TEXT 472 616 Center 2 ;peak current detection\nblanking time
TEXT 496 360 Center 2 ;pwml to pwmh\ndeadtime
TEXT -592 184 Center 2 ;pwmh to pwml\ndeadtime\n(in degree)
