Version 4.1
SHEET 1 1580 2284
WIRE -288 -160 -304 -160
WIRE -272 -160 -288 -160
WIRE 48 -160 32 -160
WIRE 64 -160 48 -160
WIRE -288 -128 -288 -160
WIRE 48 -128 48 -160
WIRE -336 -48 -368 -48
WIRE 128 -48 96 -48
WIRE -464 -32 -512 -32
WIRE 272 -32 224 -32
WIRE -1056 -16 -1072 -16
WIRE -1040 -16 -1056 -16
WIRE -288 -16 -288 -32
WIRE -288 -16 -368 -16
WIRE 48 -16 48 -32
WIRE 128 -16 48 -16
WIRE -1056 16 -1056 -16
WIRE -288 16 -288 -16
WIRE -240 16 -288 16
WIRE -144 16 -176 16
WIRE 48 16 48 -16
WIRE 48 16 -16 16
WIRE -512 32 -512 -32
WIRE -512 32 -544 32
WIRE -288 32 -288 16
WIRE 48 32 48 16
WIRE 272 32 272 -32
WIRE 304 32 272 32
WIRE -640 48 -704 48
WIRE 432 48 400 48
WIRE 528 48 496 48
WIRE -512 64 -544 64
WIRE 304 64 272 64
WIRE -208 80 -208 48
WIRE -336 112 -368 112
WIRE 128 112 96 112
WIRE -1056 128 -1056 96
WIRE -512 128 -512 64
WIRE -464 128 -512 128
WIRE 272 128 272 64
WIRE 272 128 224 128
WIRE -288 144 -288 128
WIRE -288 144 -368 144
WIRE 48 144 48 128
WIRE 128 144 48 144
WIRE -288 176 -288 144
WIRE 48 176 48 144
WIRE 752 208 720 208
WIRE 752 256 752 208
WIRE 816 256 752 256
WIRE 816 288 752 288
WIRE 1104 304 1040 304
WIRE 816 320 752 320
WIRE -288 336 -304 336
WIRE -272 336 -288 336
WIRE 48 336 32 336
WIRE 64 336 48 336
WIRE 1104 336 1040 336
WIRE 816 352 752 352
WIRE -288 368 -288 336
WIRE 48 368 48 336
WIRE 1104 368 1040 368
WIRE 816 384 752 384
WIRE -336 448 -368 448
WIRE 128 448 96 448
WIRE -464 464 -512 464
WIRE 272 464 224 464
WIRE -288 480 -288 464
WIRE -288 480 -368 480
WIRE 48 480 48 464
WIRE 128 480 48 480
WIRE -944 496 -976 496
WIRE -1136 512 -1184 512
WIRE -288 512 -288 480
WIRE -240 512 -288 512
WIRE -144 512 -176 512
WIRE 48 512 48 480
WIRE 48 512 -16 512
WIRE -944 528 -976 528
WIRE -512 528 -512 464
WIRE -512 528 -544 528
WIRE -288 528 -288 512
WIRE 48 528 48 512
WIRE 272 528 272 464
WIRE 304 528 272 528
WIRE -640 544 -704 544
WIRE 432 544 400 544
WIRE 528 544 496 544
WIRE -512 560 -544 560
WIRE 304 560 272 560
WIRE -208 576 -208 544
WIRE -336 608 -368 608
WIRE 128 608 96 608
WIRE -512 624 -512 560
WIRE -464 624 -512 624
WIRE 272 624 272 560
WIRE 272 624 224 624
WIRE -288 640 -288 624
WIRE -288 640 -368 640
WIRE 48 640 48 624
WIRE 128 640 48 640
WIRE -288 672 -288 640
WIRE 48 672 48 640
FLAG 1104 336 omega
FLAG 1104 368 theta
FLAG -288 176 0
FLAG -144 16 A
FLAG 752 288 A
FLAG 752 320 Ax
FLAG 752 352 B
FLAG 752 384 Bx
FLAG -288 -160 VM
FLAG 48 176 0
FLAG -16 16 Ax
FLAG 48 -160 VM
FLAG -704 48 PWMA
FLAG 528 48 PWMA
FLAG 1104 304 torque
FLAG -288 672 0
FLAG -144 512 B
FLAG -288 336 VM
FLAG 48 672 0
FLAG -16 512 Bx
FLAG 48 336 VM
FLAG -704 544 PWMB
FLAG 528 544 PWMB
FLAG -1056 128 0
FLAG -1056 -16 VM
FLAG -208 80 IA
FLAG -208 576 IB
FLAG -944 496 pwmb
FLAG -944 528 pwma
SYMBOL CONST 688 208 R0
WINDOW 39 3 49 Bottom 2
SYMATTR SpiceLine K=0
SYMATTR InstName X2
SYMBOL iNMOS -288 -80 R0
SYMATTR InstName X3
SYMBOL iNMOS -288 80 R0
SYMATTR InstName X4
SYMBOL iGD -416 -32 R0
SYMATTR InstName X5
SYMBOL iGD -416 128 R0
SYMATTR InstName X6
SYMBOL DEADTIME -592 48 R0
SYMATTR InstName X7
SYMBOL iNMOS 48 -80 M0
SYMATTR InstName X8
SYMBOL iNMOS 48 80 M0
SYMATTR InstName X9
SYMBOL iGD 176 -32 M0
SYMATTR InstName X10
SYMBOL iGD 176 128 M0
SYMATTR InstName X11
SYMBOL DEADTIME 352 48 M0
SYMATTR InstName X12
SYMBOL Digital\\inv 496 -16 M0
SYMATTR InstName A1
SYMBOL iNMOS -288 416 R0
SYMATTR InstName X13
SYMBOL iNMOS -288 576 R0
SYMATTR InstName X14
SYMBOL iGD -416 464 R0
SYMATTR InstName X15
SYMBOL iGD -416 624 R0
SYMATTR InstName X16
SYMBOL DEADTIME -592 544 R0
SYMATTR InstName X17
SYMBOL iNMOS 48 416 M0
SYMATTR InstName X18
SYMBOL iNMOS 48 576 M0
SYMATTR InstName X19
SYMBOL iGD 176 464 M0
SYMATTR InstName X20
SYMBOL iGD 176 624 M0
SYMATTR InstName X21
SYMBOL DEADTIME 352 544 M0
SYMATTR InstName X22
SYMBOL Digital\\inv 496 480 M0
SYMATTR InstName A2
SYMBOL voltage -1056 0 R0
SYMATTR InstName V1
SYMATTR Value 24
SYMBOL IMON -208 16 R0
SYMATTR InstName X23
SYMBOL IMON -208 512 R0
SYMATTR InstName X24
SYMBOL PHASESHIFT -1056 512 R0
WINDOW 39 9 73 Bottom 2
SYMATTR SpiceLine freq=10
SYMATTR InstName X29
SYMBOL CONST -1216 512 R0
WINDOW 39 4 57 Bottom 2
SYMATTR SpiceLine K=90
SYMATTR InstName X46
SYMBOL STEPPER_2PH 928 320 R0
WINDOW 3 -9 116 Bottom 2
WINDOW 123 1 140 Bottom 2
WINDOW 39 -7 167 Bottom 2
SYMATTR InstName X1
TEXT -1288 -336 Left 2 !.tran 0 1 0
TEXT -1296 -296 Left 2 !.options solver="norm"\n.options method="gear"
TEXT -1336 -448 Left 6 ;2 Phase Stepper Motor, Full step control
TEXT 832 -408 Left 2 ;2025.09.04
TEXT -1216 672 Left 2 ;<Revision History>\n2025-07-21: Initial version\n2025-09-04: \n - Reloaded updated 2PH STEPPER model.\n - Changed rotation direction by swapping clk1/2.
