Version 4.1
SHEET 1 2148 1364
WIRE 816 224 752 224
WIRE 1056 224 816 224
WIRE 1184 224 1056 224
WIRE 1280 224 1248 224
WIRE 1376 224 1344 224
WIRE 1424 224 1376 224
WIRE 1552 224 1504 224
WIRE 1648 224 1552 224
WIRE 1696 224 1648 224
WIRE 1744 224 1696 224
WIRE 752 256 752 224
WIRE 1056 256 1056 224
WIRE 1648 272 1648 224
WIRE 1184 288 1184 224
WIRE 1248 288 1248 224
WIRE 1376 288 1376 224
WIRE 1552 288 1552 224
WIRE 1744 304 1744 224
WIRE 1792 320 1760 320
WIRE 1056 352 1056 320
WIRE 752 368 752 336
WIRE 1008 432 976 432
WIRE 1248 432 1248 368
WIRE 1376 432 1376 352
WIRE 1376 432 1248 432
WIRE 1456 432 1376 432
WIRE 1552 432 1552 352
WIRE 1552 432 1456 432
WIRE 1648 432 1648 352
WIRE 1648 432 1552 432
WIRE 1744 432 1744 336
WIRE 1744 432 1648 432
WIRE 880 448 848 448
WIRE 1056 464 1056 448
WIRE 1056 464 976 464
WIRE 1136 464 1056 464
WIRE 1184 464 1184 368
WIRE 1184 464 1136 464
WIRE 1456 464 1456 432
WIRE -176 480 -208 480
WIRE -48 480 -80 480
WIRE -16 480 -48 480
WIRE 96 480 80 480
WIRE 1184 496 1184 464
WIRE 1232 528 1216 528
WIRE -176 544 -208 544
WIRE -48 544 -80 544
WIRE -16 544 -48 544
WIRE 96 544 80 544
WIRE -48 576 -48 544
WIRE 96 576 96 544
WIRE 816 624 784 624
WIRE 848 624 848 448
WIRE 848 624 816 624
WIRE 288 640 256 640
WIRE 416 640 384 640
WIRE 528 640 480 640
WIRE 544 640 528 640
WIRE 656 640 624 640
WIRE 688 640 656 640
WIRE 1136 640 1104 640
WIRE 816 656 784 656
WIRE 1008 656 816 656
WIRE 528 672 512 672
WIRE 544 672 528 672
WIRE 1184 672 1184 656
WIRE 1184 672 1104 672
WIRE 1184 720 1184 672
WIRE 1456 720 1456 528
WIRE 1456 720 1184 720
WIRE 1184 736 1184 720
WIRE -160 768 -192 768
WIRE -64 768 -96 768
WIRE -32 768 -64 768
WIRE 224 784 192 784
WIRE 384 784 224 784
WIRE -64 800 -96 800
WIRE -32 800 -64 800
WIRE 512 800 512 672
WIRE 512 800 464 800
WIRE 384 816 352 816
WIRE 272 848 256 848
WIRE 352 848 352 816
WIRE 352 848 336 848
WIRE -96 864 -96 800
WIRE -96 864 -176 864
WIRE 192 928 160 928
WIRE 304 928 304 880
WIRE 304 928 256 928
FLAG 816 224 in
FLAG 224 784 vc
FLAG 656 640 pwm
FLAG 1232 528 IL
FLAG 256 848 IL
FLAG 528 640 s
FLAG 528 672 r
FLAG 160 928 pwm
FLAG 304 928 slope
FLAG -192 768 vout
FLAG -48 480 vc
FLAG -48 576 0
FLAG 96 576 0
FLAG 96 480 vout
FLAG 1792 320 vout
FLAG 1184 736 0
FLAG 752 368 0
FLAG -64 768 fb
FLAG -64 800 ref
FLAG -208 480 fb
FLAG 1696 224 out
FLAG 1136 464 sw
FLAG 816 656 on1
FLAG 816 624 on2
FLAG -208 544 ref
SYMBOL voltage 752 240 R0
WINDOW 0 -55 27 Top 2
WINDOW 3 -62 82 Bottom 2
WINDOW 123 0 0 Left 0
WINDOW 39 0 0 Left 0
SYMATTR InstName V1
SYMATTR Value 200
SYMBOL ind 1408 240 R270
WINDOW 0 32 56 VTop 2
WINDOW 3 5 56 VBottom 2
SYMATTR InstName L1
SYMATTR Value 22µ
SYMATTR SpiceLine Rser=1m
SYMBOL cap 1536 288 R0
SYMATTR InstName C1
SYMATTR Value 22µ
SYMATTR SpiceLine Rser=1m
SYMBOL iGD 1056 656 R0
SYMATTR InstName X2
SYMBOL iGD 928 448 R0
SYMATTR InstName X3
SYMBOL DEADTIME 736 640 M180
WINDOW 0 6 69 Bottom 2
WINDOW 39 0 -49 Bottom 2
SYMATTR InstName X1
SYMATTR SpiceLine dt=50n
SYMBOL res 1632 256 R0
SYMATTR InstName R1
SYMATTR Value 4
SYMBOL IMON 1184 528 M90
WINDOW 0 -34 7 VRight 2
SYMATTR InstName X4
SYMBOL VCO 336 640 R0
SYMATTR InstName X6
SYMBOL POSEDGE 448 640 R0
WINDOW 39 -1 56 Bottom 2
SYMATTR InstName X7
SYMBOL CONST 224 640 R0
WINDOW 39 3 64 Bottom 2
SYMATTR SpiceLine K=250k
SYMATTR InstName X8
SYMBOL CMP 432 800 R0
SYMATTR InstName X9
SYMBOL SRFF 576 656 R0
SYMATTR InstName X11
SYMBOL SLOPE 224 928 R0
WINDOW 39 44 64 Bottom 2
SYMATTR SpiceLine Se={(Vin/Lp)*0.1}
SYMATTR InstName X12
SYMBOL TYPE2 80 784 R0
WINDOW 0 -2 -52 Center 2
WINDOW 39 2 58 Center 2
WINDOW 40 2 86 Center 2
SYMATTR InstName X13
SYMATTR SpiceLine g=0.4 fz1=1k fp1=100k
SYMBOL CONST -208 864 R0
WINDOW 39 0 51 Bottom 2
SYMATTR SpiceLine K=12
SYMATTR InstName X14
SYMBOL fra -96 768 R270
WINDOW 0 16 -32 VTop 2
SYMATTR InstName @1
SYMATTR SpiceLine delay=1m fstart=1k fend=100k oct=2 nmax=2 pp0=50m pp1=50m f0=1k f1=10k tavgmin=300µ tsettle=1m
SYMBOL fraprobe -128 560 R0
SYMATTR InstName &1comp
SYMBOL fraprobe 32 560 R0
SYMATTR InstName &1plant
SYMBOL SUM 304 848 R0
SYMATTR InstName X5
SYMBOL iNMOS 1184 608 R0
SYMATTR InstName X10
SYMBOL iNMOS 1056 400 R0
SYMATTR InstName X15
SYMBOL iD 1376 320 R180
SYMATTR InstName X16
SYMBOL iD 1312 224 R270
WINDOW 0 16 0 VTop 2
SYMATTR InstName X17
SYMBOL PowerSim\\VMON 1744 320 R0
WINDOW 0 51 -34 Right 2
SYMATTR InstName X18
SYMBOL ind 1168 384 M180
WINDOW 0 -37 74 Left 2
WINDOW 3 -60 31 Left 2
SYMATTR InstName Lp
SYMATTR Value {Lp}
SYMATTR Type ind
SYMATTR SpiceLine Rser=10m
SYMBOL ind 1264 384 R180
WINDOW 0 -33 75 Left 2
WINDOW 3 -51 31 Left 2
SYMATTR InstName Ls
SYMATTR Value {Ls}
SYMATTR Type ind
SYMATTR SpiceLine Rser=1m
SYMBOL cap 1040 256 R0
SYMATTR InstName Cclmp
SYMATTR Value 100n
SYMATTR SpiceLine Rser=0.1m
SYMBOL cap 1440 464 R0
SYMATTR InstName C2
SYMATTR Value 1p
TEXT 304 80 Left 2 !.tran 0 1m 0.98m uic
TEXT -208 -8 Left 6 ;Acitve Clamp Forward Converter
TEXT 304 112 Left 2 ;.fra uic
TEXT 1592 32 Left 2 ;2026-05-06
TEXT -200 64 Left 2 ;Vin=200V, Vout=12V/10A
TEXT -208 -80 Left 6 ;Peak Current Mode Control
TEXT 1136 144 Left 2 !K Lp Ls 0.995
TEXT -208 120 Left 2 !.options solver="norm"\n.options method="gear"
TEXT -200 184 Left 2 !;.options debugtran
TEXT 240 232 Left 2 !.param Vin=200\n.param Lp=100u\n.param Ls=10u
