Version 4.1
SHEET 1 2724 2028
WIRE -704 640 -720 640
WIRE -384 640 -704 640
WIRE -720 672 -720 640
WIRE -384 704 -384 640
WIRE -720 784 -720 752
WIRE -432 784 -464 784
WIRE -416 832 -592 832
WIRE -384 832 -384 800
WIRE -384 832 -416 832
WIRE -384 864 -384 832
WIRE -592 912 -592 832
WIRE -432 944 -464 944
WIRE -384 992 -384 960
WIRE -352 992 -384 992
WIRE -240 992 -352 992
WIRE -160 992 -240 992
WIRE -144 992 -160 992
WIRE -384 1024 -384 992
WIRE -592 1040 -592 992
WIRE -240 1040 -240 992
WIRE -144 1040 -144 992
WIRE -432 1104 -464 1104
WIRE -592 1152 -592 1104
WIRE -416 1152 -592 1152
WIRE -384 1152 -384 1120
WIRE -384 1152 -416 1152
WIRE -384 1184 -384 1152
WIRE -240 1184 -240 1104
WIRE -144 1184 -144 1120
WIRE -432 1264 -464 1264
WIRE -384 1328 -384 1280
WIRE 144 1424 112 1424
WIRE 16 1440 -16 1440
WIRE 144 1456 112 1456
WIRE -16 1472 -16 1440
WIRE -16 1472 -64 1472
WIRE -512 1488 -560 1488
WIRE -160 1488 -224 1488
WIRE -16 1504 -64 1504
WIRE 144 1536 112 1536
WIRE -16 1552 -16 1504
WIRE 16 1552 -16 1552
WIRE 144 1568 112 1568
WIRE -512 1584 -512 1488
WIRE -432 1584 -512 1584
WIRE -224 1584 -224 1488
WIRE -224 1584 -272 1584
WIRE -976 1600 -1008 1600
WIRE -832 1600 -912 1600
WIRE -784 1600 -832 1600
WIRE -480 1616 -560 1616
WIRE -432 1616 -480 1616
WIRE -224 1616 -272 1616
WIRE -832 1632 -848 1632
WIRE -784 1632 -832 1632
WIRE 144 1648 112 1648
WIRE 16 1664 -16 1664
WIRE -848 1680 -848 1632
WIRE -848 1680 -896 1680
WIRE 144 1680 112 1680
WIRE -16 1696 -16 1664
WIRE -16 1696 -64 1696
WIRE -224 1712 -224 1616
WIRE -160 1712 -224 1712
WIRE -16 1728 -64 1728
WIRE 144 1760 112 1760
WIRE -16 1776 -16 1728
WIRE 16 1776 -16 1776
WIRE 144 1792 112 1792
WIRE -800 1808 -832 1808
WIRE -672 1808 -704 1808
WIRE -640 1808 -672 1808
WIRE -528 1808 -544 1808
WIRE -800 1872 -832 1872
WIRE -672 1872 -704 1872
WIRE -640 1872 -672 1872
WIRE -528 1872 -544 1872
WIRE -672 1904 -672 1872
WIRE -528 1904 -528 1872
FLAG -240 1184 0
FLAG -160 992 out
FLAG -704 640 in
FLAG -352 992 sw2
FLAG -144 1184 0
FLAG -384 1328 0
FLAG -464 784 G1
FLAG -464 944 G2
FLAG -464 1104 G3
FLAG -464 1264 G4
FLAG -416 832 sw1
FLAG -416 1152 sw3
FLAG 144 1424 G1
FLAG 144 1456 sw1
FLAG 144 1536 G2
FLAG 144 1648 G3
FLAG 144 1680 sw3
FLAG 144 1760 G4
FLAG 144 1792 0
FLAG 144 1568 sw2
FLAG -720 784 0
FLAG -1008 1600 out
FLAG -480 1616 ph
FLAG -672 1808 ph
FLAG -672 1904 0
FLAG -528 1904 0
FLAG -528 1808 out
FLAG -832 1600 fb
FLAG -832 1632 ref
FLAG -832 1808 fb
FLAG -832 1872 ref
SYMBOL voltage -720 656 R0
WINDOW 0 32 56 VTop 2
WINDOW 3 -32 56 VBottom 2
WINDOW 123 0 0 Left 0
WINDOW 39 0 0 Left 0
SYMATTR InstName V1
SYMATTR Value 10
SYMBOL cap -256 1040 R0
SYMATTR InstName C1
SYMATTR Value 22µ
SYMATTR SpiceLine Rser=3m Lser=0.9n
SYMBOL res -160 1024 R0
SYMATTR InstName R1
SYMATTR Value 20
SYMBOL iNMOS -384 912 R0
SYMATTR InstName X2
SYMATTR Value esl={fetesl} rsnb={fetrsnb} csnb={fetcsnb}
SYMATTR SpiceLine ron={fetron}
SYMBOL iNMOS -384 1072 R0
SYMATTR InstName X3
SYMATTR Value esl={fetesl} rsnb={fetrsnb} csnb={fetcsnb}
SYMATTR SpiceLine ron={fetron}
SYMBOL iNMOS -384 752 R0
SYMATTR InstName X1
SYMATTR Value esl={fetesl} rsnb={fetrsnb} csnb={fetcsnb}
SYMATTR SpiceLine ron={fetron}
SYMBOL iNMOS -384 1232 R0
SYMATTR InstName X4
SYMATTR Value esl={fetesl} rsnb={fetrsnb} csnb={fetcsnb}
SYMATTR SpiceLine ron={fetron}
SYMBOL cap -608 1040 R0
SYMATTR InstName Cr1
SYMATTR Value 2.2µ
SYMATTR SpiceLine Rser=5m Lser=0.7n
SYMBOL iGD 64 1440 R0
SYMATTR InstName X5
SYMBOL iGD 64 1552 R0
SYMATTR InstName X6
SYMBOL DEADTIME -112 1488 R0
SYMATTR InstName X7
SYMBOL PowerSim\\CONST -592 1488 R0
WINDOW 39 3 58 Bottom 2
SYMATTR SpiceLine K=200k
SYMATTR InstName X9
SYMBOL iGD 64 1664 R0
SYMATTR InstName X10
SYMBOL iGD 64 1776 R0
SYMATTR InstName X11
SYMBOL ind -608 896 R0
SYMATTR InstName Lr1
SYMATTR Value 4.7µ
SYMATTR SpiceLine Rser=10m
SYMBOL PowerSim\\PHASESHIFT2 -352 1600 R0
SYMATTR InstName X12
SYMBOL DEADTIME -112 1712 R0
SYMATTR InstName X8
SYMBOL PowerSim\\TYPE2 -672 1616 R0
WINDOW 39 24 74 Bottom 2
WINDOW 40 -3 105 Bottom 2
SYMATTR SpiceLine g=50 fz1=1k fp1=100k
SYMATTR SpiceLine2 vh=90 vl=0
SYMATTR InstName X14
SYMBOL PowerSim\\CONST -928 1680 R0
WINDOW 39 3 58 Bottom 2
SYMATTR SpiceLine K=5
SYMATTR InstName X13
SYMBOL fra -912 1600 R270
WINDOW 0 16 -32 VTop 2
SYMATTR InstName @1
SYMATTR SpiceLine delay=3m fstart=500 fend=20k oct=2 pp0=160m pp1=10m f0=31.25 f1=500
SYMBOL fraprobe -752 1888 R0
SYMATTR InstName &Icomp
SYMBOL fraprobe -592 1888 R0
SYMATTR InstName &Iplant
TEXT -1216 488 Left 2 !.tran 0 3m 2.9m
TEXT -1232 224 Left 6 ;Ladder 2to1 Phase shift Resonant \nSwitched Capacitor Converter
TEXT 48 144 Left 2 ;2026-3-21
TEXT -1216 424 Left 2 !.options solver="norm"\n.options method="gear"
TEXT -296 736 Left 2 !.param fetron=100m\n.param fetesl=0.5n\n.param fetrsnb=1\n.param fetcsnb=2n
TEXT -1216 520 Left 2 ;.fra
