Version 4
SHEET 1 2724 2028
WIRE 1584 608 1216 608
WIRE 1216 640 1216 608
WIRE 1584 672 1584 608
WIRE 864 704 832 704
WIRE 0 720 -16 720
WIRE 736 720 704 720
WIRE 864 736 832 736
WIRE 1216 752 1216 720
WIRE 1536 752 1504 752
WIRE 704 800 704 720
WIRE 704 800 656 800
WIRE 1552 800 1376 800
WIRE 1584 800 1584 768
WIRE 1584 800 1552 800
WIRE -144 816 -176 816
WIRE -16 816 -16 720
WIRE -16 816 -48 816
WIRE 32 816 -16 816
WIRE 144 816 96 816
WIRE 160 816 144 816
WIRE 288 816 240 816
WIRE 368 816 288 816
WIRE 432 816 368 816
WIRE 512 816 496 816
WIRE 560 816 512 816
WIRE 704 832 656 832
WIRE 1584 832 1584 800
WIRE 144 848 128 848
WIRE 160 848 144 848
WIRE 432 848 400 848
WIRE 864 880 832 880
WIRE 704 896 704 832
WIRE 736 896 704 896
WIRE 864 912 832 912
WIRE 1536 912 1504 912
WIRE 1376 928 1376 800
WIRE 1792 928 1792 912
WIRE -416 944 -576 944
WIRE -160 960 -192 960
WIRE 0 960 -160 960
WIRE 1584 960 1584 928
WIRE 1616 960 1584 960
WIRE 1664 960 1616 960
WIRE 1760 960 1744 960
WIRE 1840 960 1824 960
WIRE 1920 960 1840 960
WIRE 1936 960 1920 960
WIRE 2032 960 1936 960
WIRE -416 976 -480 976
WIRE 128 976 128 848
WIRE 128 976 80 976
WIRE 0 992 -32 992
WIRE 1584 992 1584 960
WIRE 1840 1008 1840 960
WIRE 1936 1008 1936 960
WIRE 2032 1008 2032 960
WIRE -112 1024 -128 1024
WIRE -32 1024 -32 992
WIRE -32 1024 -48 1024
WIRE -480 1040 -480 976
WIRE -480 1040 -528 1040
WIRE 864 1040 832 1040
WIRE 736 1056 704 1056
WIRE 864 1072 832 1072
WIRE 1536 1072 1504 1072
WIRE -192 1104 -224 1104
WIRE -80 1104 -80 1056
WIRE -80 1104 -128 1104
WIRE 1376 1120 1376 992
WIRE 1552 1120 1376 1120
WIRE 1584 1120 1584 1088
WIRE 1584 1120 1552 1120
WIRE 704 1136 704 1056
WIRE 704 1136 656 1136
WIRE 368 1152 368 816
WIRE 432 1152 368 1152
WIRE 512 1152 496 1152
WIRE 560 1152 512 1152
WIRE 1584 1152 1584 1120
WIRE 1840 1152 1840 1072
WIRE 1936 1152 1936 1088
WIRE 2032 1152 2032 1072
WIRE 704 1168 656 1168
WIRE 432 1184 368 1184
WIRE 864 1216 832 1216
WIRE 704 1232 704 1168
WIRE 736 1232 704 1232
WIRE 1536 1232 1504 1232
WIRE 864 1248 832 1248
WIRE 336 1280 208 1280
WIRE 1584 1296 1584 1248
WIRE 208 1344 208 1280
WIRE 240 1344 208 1344
WIRE 400 1344 400 848
WIRE 400 1344 320 1344
WIRE 1200 1344 1168 1344
WIRE 1280 1344 1264 1344
WIRE 1376 1344 1344 1344
WIRE 1616 1344 1616 960
WIRE 1616 1344 1456 1344
WIRE 240 1376 192 1376
WIRE 336 1376 336 1280
WIRE 336 1376 320 1376
WIRE 368 1376 368 1184
WIRE 368 1376 336 1376
FLAG 1216 752 0
FLAG 1840 1152 0
FLAG 1920 960 out
FLAG 1216 608 in
FLAG 1616 960 sw1
FLAG -160 960 vc
FLAG 1936 1152 0
FLAG 512 816 d1
FLAG 1792 912 IL
FLAG -128 1024 IL
FLAG 144 816 s
FLAG 144 848 r
FLAG -224 1104 pwm
FLAG -80 1104 slope
FLAG -576 944 out
FLAG 1584 1296 0
FLAG 1504 752 G1
FLAG 1504 912 G2
FLAG 1504 1072 G3
FLAG 1504 1232 G4
FLAG 1552 800 sw2
FLAG 1552 1120 sw3
FLAG 864 704 G1
FLAG 864 736 sw2
FLAG 864 880 G4
FLAG 864 912 0
FLAG 864 1040 G2
FLAG 864 1072 sw1
FLAG 864 1216 G3
FLAG 0 720 clk
FLAG 864 1248 sw3
FLAG 512 1152 d2
FLAG 288 816 pwm
FLAG 192 1376 clk
FLAG 1168 1344 in
FLAG 2032 1152 0
SYMBOL voltage 1216 624 R0
WINDOW 0 32 56 VTop 2
WINDOW 3 -32 56 VBottom 2
WINDOW 123 0 0 Left 0
WINDOW 39 0 0 Left 0
SYMATTR InstName V1
SYMATTR Value 10
SYMBOL ind 1648 976 R270
WINDOW 0 32 56 VTop 2
WINDOW 3 5 56 VBottom 2
SYMATTR InstName L1
SYMATTR Value 10µ
SYMBOL cap 1824 1008 R0
SYMATTR InstName C1
SYMATTR Value 22µ
SYMATTR SpiceLine Rser=1m
SYMBOL iGD 784 720 R0
SYMATTR InstName X2
SYMBOL iGD 784 896 R0
SYMATTR InstName X3
SYMBOL DEADTIME 608 816 R0
SYMATTR InstName X1
SYMBOL res 1920 992 R0
SYMATTR InstName R1
SYMATTR Value 1
SYMBOL IMON 1792 960 M180
SYMATTR InstName X4
SYMBOL VCO -96 816 R0
SYMATTR InstName X6
SYMBOL POSEDGE 64 816 R0
WINDOW 39 5 51 Bottom 2
SYMATTR SpiceLine TD=10n
SYMATTR InstName X7
SYMBOL CONST -208 816 R0
WINDOW 39 0 51 Bottom 2
SYMATTR SpiceLine K=2Meg
SYMATTR InstName X8
SYMBOL CMP 48 976 R0
SYMATTR InstName X9
SYMBOL SRFF 192 832 R0
SYMATTR InstName X11
SYMBOL SLOPE -160 1104 R0
WINDOW 39 92 60 Bottom 2
SYMATTR SpiceLine Se={((5-1)/10u)*0.1}
SYMATTR InstName X12
SYMBOL TYPE2 -304 960 R0
WINDOW 0 -2 -52 Center 2
WINDOW 39 2 58 Center 2
WINDOW 40 2 86 Center 2
SYMATTR InstName X13
SYMATTR SpiceLine g=6 fz1=5k fp1=200k
SYMBOL CONST -560 1040 R0
WINDOW 39 0 51 Bottom 2
SYMATTR InstName X14
SYMBOL SUM -80 1024 R0
SYMATTR InstName X5
SYMBOL iNMOS 1584 880 R0
SYMATTR InstName X10
SYMBOL iNMOS 1584 1040 R0
SYMATTR InstName X15
SYMBOL iNMOS 1584 720 R0
SYMATTR InstName X16
SYMBOL iNMOS 1584 1200 R0
SYMATTR InstName X17
SYMBOL cap 1360 928 R0
SYMATTR InstName Cfly
SYMATTR Value 10µ
SYMBOL iGD 784 1056 R0
SYMATTR InstName X18
SYMBOL iGD 784 1232 R0
SYMATTR InstName X19
SYMBOL DEADTIME 608 1152 R0
SYMATTR InstName X20
SYMBOL Digital\\and 464 768 R0
WINDOW 0 -27 17 Left 2
SYMATTR InstName A1
SYMBOL Digital\\and 464 1104 R0
WINDOW 0 -35 13 Left 2
SYMATTR InstName A2
SYMBOL PowerSim\\GAIN 1232 1344 R0
WINDOW 39 0 74 Bottom 2
SYMATTR SpiceLine G=0.5
SYMATTR InstName X21
SYMBOL load 2016 1008 R0
WINDOW 123 0 0 Left 0
WINDOW 39 0 0 Left 0
SYMATTR InstName I1
SYMATTR Value PULSE(0 1 100u 1u 1u 200u)
SYMBOL PowerSim\\iD 1312 1344 R90
WINDOW 0 -16 0 VBottom 2
SYMATTR InstName X22
SYMBOL res 1472 1328 R90
WINDOW 0 0 56 VBottom 2
WINDOW 3 32 56 VTop 2
SYMATTR InstName R2
SYMATTR Value 0.1
SYMBOL PowerSim\\DFF 272 1360 R0
SYMATTR InstName X23
TEXT -536 432 Left 2 !.tran 1m
TEXT -560 368 Left 6 ;Three-Level Buck
TEXT 1952 416 Left 2 ;2025-1-3
